MODEL 1
REMARK VINA RESULT:    -7.205      0.000      0.000
REMARK INTER + INTRA:         -12.127
REMARK INTER:                 -10.995
REMARK INTRA:                  -1.131
REMARK UNBOUND:                -1.131
REMARK  9 active torsions:
REMARK  status: ('A' for Active; 'I' for Inactive)
REMARK    1  A    between atoms: C02_2  and  N03_3 
REMARK    2  A    between atoms: N03_3  and  C04_4 
REMARK    3  A    between atoms: N03_3  and  C06_6 
REMARK    4  A    between atoms: C06_6  and  C07_7 
REMARK    5  A    between atoms: C07_7  and  O08_8 
REMARK    6  A    between atoms: O08_8  and  C09_9 
REMARK    7  A    between atoms: C12_12  and  N13_13 
REMARK    8  A    between atoms: N13_13  and  C14_14 
REMARK    9  A    between atoms: C21_21  and  C26_26 
ROOT
HETATM    1  C14   D T 601      -1.589  -6.997  -9.794  1.00 17.92     0.728 A 
HETATM    2  N15   D T 601      -0.562  -7.031 -10.666  1.00 19.07    -0.044 NA
HETATM    3  C16   D T 601       0.657  -6.532 -10.419  1.00 18.16     0.163 A 
HETATM    4  C17   D T 601       0.869  -5.910  -9.187  1.00 16.80     0.030 A 
HETATM    5  C18   D T 601      -0.202  -5.832  -8.295  1.00 18.08     0.151 A 
HETATM    6  N19   D T 601      -1.396  -6.373  -8.619  1.00 16.91    -0.074 NA
HETATM    7  C20   D T 601       2.131  -5.355  -8.895  1.00 17.65     0.034 A 
HETATM    8  C21   D T 601       3.174  -5.446  -9.829  1.00 18.53     0.047 A 
HETATM    9  C22   D T 601       2.901  -6.084 -11.064  1.00 19.48     0.260 A 
HETATM   10  O23   D T 601       3.856  -6.103 -11.868  1.00 21.52    -0.267 OA
HETATM   11  N24   D T 601       1.662  -6.628 -11.349  1.00 19.49    -0.301 N 
HETATM   12  C25   D T 601       1.365  -7.314 -12.597  1.00 20.07     0.161 C 
ENDROOT
BRANCH   1  13
HETATM   13  N13   D T 601      -2.770  -7.540 -10.127  1.00 20.14    -0.188 N 
HETATM   14 1H13   D T 601      -3.379  -6.948 -10.476  1.00 24.16     0.184 HD
BRANCH  13  15
HETATM   15  C12   D T 601      -3.219  -8.839 -10.032  1.00 24.69     0.049 A 
HETATM   16  C11   D T 601      -2.807  -9.732 -11.056  1.00 26.89     0.033 A 
HETATM   17  C10   D T 601      -3.205 -11.087 -11.029  1.00 28.95     0.039 A 
HETATM   18  C09   D T 601      -4.002 -11.563  -9.966  1.00 30.95     0.069 A 
HETATM   19  C35   D T 601      -4.387 -10.686  -8.937  1.00 28.80     0.039 A 
HETATM   20  C34   D T 601      -4.004  -9.341  -8.982  1.00 26.81     0.033 A 
BRANCH  18  21
HETATM   21  O08   D T 601      -4.359 -12.864  -9.890  1.00 36.09    -0.350 OA
BRANCH  21  22
HETATM   22  C07   D T 601      -3.531 -13.779 -10.658  1.00 42.63     0.195 C 
BRANCH  22  23
HETATM   23  C06   D T 601      -3.550 -15.180  -9.970  1.00 46.85     0.143 C 
BRANCH  23  24
HETATM   24  N03   D T 601      -2.880 -15.206  -8.614  1.00 51.06    -0.411 N 
BRANCH  24  25
HETATM   25  C02   D T 601      -3.685 -15.190  -7.317  1.00 53.85     0.112 C 
HETATM   26  C01   D T 601      -4.426 -16.494  -6.872  1.00 52.69     0.026 C 
ENDBRANCH  24  25
BRANCH  24  27
HETATM   27  C04   D T 601      -1.384 -15.379  -8.608  1.00 47.80     0.112 C 
HETATM   28  C05   D T 601      -0.669 -15.589  -7.245  1.00 44.89     0.026 C 
ENDBRANCH  24  27
ENDBRANCH  23  24
ENDBRANCH  22  23
ENDBRANCH  21  22
ENDBRANCH  18  21
ENDBRANCH  13  15
ENDBRANCH   1  13
BRANCH   8  29
HETATM   29  C26   D T 601       4.470  -4.907  -9.547  1.00 21.63     0.023 A 
HETATM   30  C27   D T 601       5.500  -5.744  -9.035  1.00 22.75     0.046 A 
HETATM   31 CL28   D T 601       5.190  -7.372  -8.707  1.00 22.59    -0.083 Cl
HETATM   32  C29   D T 601       6.797  -5.244  -8.746  1.00 24.08     0.025 A 
HETATM   33  C30   D T 601       7.097  -3.890  -9.014  1.00 25.63     0.003 A 
HETATM   34  C31   D T 601       6.102  -3.055  -9.541  1.00 25.41     0.025 A 
HETATM   35  C32   D T 601       4.803  -3.556  -9.804  1.00 23.77     0.046 A 
HETATM   36 CL33   D T 601       3.644  -2.495 -10.432  1.00 25.94    -0.083 Cl
ENDBRANCH   8  29
TORSDOF 9
ENDMDL
MODEL 2
REMARK VINA RESULT:    -6.988      0.642      2.197
REMARK INTER + INTRA:         -11.796
REMARK INTER:                 -10.782
REMARK INTRA:                  -1.015
REMARK UNBOUND:                -1.131
REMARK  9 active torsions:
REMARK  status: ('A' for Active; 'I' for Inactive)
REMARK    1  A    between atoms: C02_2  and  N03_3 
REMARK    2  A    between atoms: N03_3  and  C04_4 
REMARK    3  A    between atoms: N03_3  and  C06_6 
REMARK    4  A    between atoms: C06_6  and  C07_7 
REMARK    5  A    between atoms: C07_7  and  O08_8 
REMARK    6  A    between atoms: O08_8  and  C09_9 
REMARK    7  A    between atoms: C12_12  and  N13_13 
REMARK    8  A    between atoms: N13_13  and  C14_14 
REMARK    9  A    between atoms: C21_21  and  C26_26 
ROOT
HETATM    1  C14   D T 601      -1.529  -7.135  -9.754  1.00 17.92     0.728 A 
HETATM    2  N15   D T 601      -0.506  -7.182 -10.632  1.00 19.07    -0.044 NA
HETATM    3  C16   D T 601       0.698  -6.634 -10.421  1.00 18.16     0.163 A 
HETATM    4  C17   D T 601       0.898  -5.944  -9.224  1.00 16.80     0.030 A 
HETATM    5  C18   D T 601      -0.169  -5.854  -8.328  1.00 18.08     0.151 A 
HETATM    6  N19   D T 601      -1.347  -6.447  -8.614  1.00 16.91    -0.074 NA
HETATM    7  C20   D T 601       2.144  -5.335  -8.970  1.00 17.65     0.034 A 
HETATM    8  C21   D T 601       3.183  -5.441  -9.908  1.00 18.53     0.047 A 
HETATM    9  C22   D T 601       2.921  -6.149 -11.107  1.00 19.48     0.260 A 
HETATM   10  O23   D T 601       3.871  -6.179 -11.916  1.00 21.52    -0.267 OA
HETATM   11  N24   D T 601       1.699  -6.746 -11.353  1.00 19.49    -0.301 N 
HETATM   12  C25   D T 601       1.415  -7.502 -12.562  1.00 20.07     0.161 C 
ENDROOT
BRANCH   1  13
HETATM   13  N13   D T 601      -2.694  -7.732 -10.049  1.00 20.14    -0.188 N 
HETATM   14 1H13   D T 601      -3.364  -7.157 -10.303  1.00 24.16     0.184 HD
BRANCH  13  15
HETATM   15  C12   D T 601      -3.051  -9.062 -10.034  1.00 24.69     0.049 A 
HETATM   16  C11   D T 601      -3.889  -9.485  -8.969  1.00 26.89     0.033 A 
HETATM   17  C10   D T 601      -4.319 -10.827  -8.884  1.00 28.95     0.039 A 
HETATM   18  C09   D T 601      -3.930 -11.753  -9.876  1.00 30.95     0.069 A 
HETATM   19  C35   D T 601      -3.123 -11.328 -10.946  1.00 28.80     0.039 A 
HETATM   20  C34   D T 601      -2.686 -10.001 -11.011  1.00 26.81     0.033 A 
BRANCH  18  21
HETATM   21  O08   D T 601      -4.363 -13.032  -9.846  1.00 36.09    -0.350 OA
BRANCH  21  22
HETATM   22  C07   D T 601      -3.411 -13.995  -9.317  1.00 42.63     0.195 C 
BRANCH  22  23
HETATM   23  C06   D T 601      -3.745 -14.267  -7.816  1.00 46.85     0.143 C 
BRANCH  23  24
HETATM   24  N03   D T 601      -3.406 -15.668  -7.357  1.00 51.06    -0.411 N 
BRANCH  24  25
HETATM   25  C02   D T 601      -2.110 -15.981  -6.614  1.00 53.85     0.112 C 
HETATM   26  C01   D T 601      -0.747 -15.612  -7.285  1.00 52.69     0.026 C 
ENDBRANCH  24  25
BRANCH  24  27
HETATM   27  C04   D T 601      -4.471 -16.714  -7.554  1.00 47.80     0.112 C 
HETATM   28  C05   D T 601      -4.820 -17.151  -9.004  1.00 44.89     0.026 C 
ENDBRANCH  24  27
ENDBRANCH  23  24
ENDBRANCH  22  23
ENDBRANCH  21  22
ENDBRANCH  18  21
ENDBRANCH  13  15
ENDBRANCH   1  13
BRANCH   8  29
HETATM   29  C26   D T 601       4.464  -4.848  -9.664  1.00 21.63     0.023 A 
HETATM   30  C27   D T 601       4.681  -3.469  -9.941  1.00 22.75     0.046 A 
HETATM   31 CL28   D T 601       3.446  -2.530 -10.607  1.00 22.59    -0.083 Cl
HETATM   32  C29   D T 601       5.936  -2.849  -9.709  1.00 24.08     0.025 A 
HETATM   33  C30   D T 601       6.992  -3.600  -9.145  1.00 25.63     0.003 A 
HETATM   34  C31   D T 601       6.789  -4.954  -8.844  1.00 25.41     0.025 A 
HETATM   35  C32   D T 601       5.540  -5.572  -9.101  1.00 23.77     0.046 A 
HETATM   36 CL33   D T 601       5.362  -7.212  -8.721  1.00 25.94    -0.083 Cl
ENDBRANCH   8  29
TORSDOF 9
ENDMDL
MODEL 3
REMARK VINA RESULT:    -6.929      1.531      2.933
REMARK INTER + INTRA:         -11.706
REMARK INTER:                 -10.548
REMARK INTRA:                  -1.158
REMARK UNBOUND:                -1.131
REMARK  9 active torsions:
REMARK  status: ('A' for Active; 'I' for Inactive)
REMARK    1  A    between atoms: C02_2  and  N03_3 
REMARK    2  A    between atoms: N03_3  and  C04_4 
REMARK    3  A    between atoms: N03_3  and  C06_6 
REMARK    4  A    between atoms: C06_6  and  C07_7 
REMARK    5  A    between atoms: C07_7  and  O08_8 
REMARK    6  A    between atoms: O08_8  and  C09_9 
REMARK    7  A    between atoms: C12_12  and  N13_13 
REMARK    8  A    between atoms: N13_13  and  C14_14 
REMARK    9  A    between atoms: C21_21  and  C26_26 
ROOT
HETATM    1  C14   D T 601      -1.108  -8.918 -11.627  1.00 17.92     0.728 A 
HETATM    2  N15   D T 601      -0.924  -8.050 -10.612  1.00 19.07    -0.044 NA
HETATM    3  C16   D T 601       0.194  -7.337 -10.418  1.00 18.16     0.163 A 
HETATM    4  C17   D T 601       1.250  -7.528 -11.312  1.00 16.80     0.030 A 
HETATM    5  C18   D T 601       1.083  -8.457 -12.341  1.00 18.08     0.151 A 
HETATM    6  N19   D T 601      -0.083  -9.124 -12.471  1.00 16.91    -0.074 NA
HETATM    7  C20   D T 601       2.451  -6.813 -11.134  1.00 17.65     0.034 A 
HETATM    8  C21   D T 601       2.576  -5.899 -10.076  1.00 18.53     0.047 A 
HETATM    9  C22   D T 601       1.475  -5.750  -9.198  1.00 19.48     0.260 A 
HETATM   10  O23   D T 601       1.658  -4.950  -8.257  1.00 21.52    -0.267 OA
HETATM   11  N24   D T 601       0.297  -6.452  -9.375  1.00 19.49    -0.301 N 
HETATM   12  C25   D T 601      -0.858  -6.295  -8.505  1.00 20.07     0.161 C 
ENDROOT
BRANCH   1  13
HETATM   13  N13   D T 601      -2.274  -9.573 -11.746  1.00 20.14    -0.188 N 
HETATM   14 1H13   D T 601      -2.868  -9.192 -12.333  1.00 24.16     0.184 HD
BRANCH  13  15
HETATM   15  C12   D T 601      -2.724 -10.722 -11.133  1.00 24.69     0.049 A 
HETATM   16  C11   D T 601      -2.170 -11.947 -11.590  1.00 26.89     0.033 A 
HETATM   17  C10   D T 601      -2.561 -13.172 -11.006  1.00 28.95     0.039 A 
HETATM   18  C09   D T 601      -3.493 -13.179  -9.947  1.00 30.95     0.069 A 
HETATM   19  C35   D T 601      -4.021 -11.964  -9.476  1.00 28.80     0.039 A 
HETATM   20  C34   D T 601      -3.643 -10.757 -10.073  1.00 26.81     0.033 A 
BRANCH  18  21
HETATM   21  O08   D T 601      -3.851 -14.331  -9.339  1.00 36.09    -0.350 OA
BRANCH  21  22
HETATM   22  C07   D T 601      -3.607 -14.377  -7.907  1.00 42.63     0.195 C 
BRANCH  22  23
HETATM   23  C06   D T 601      -3.210 -15.832  -7.505  1.00 46.85     0.143 C 
BRANCH  23  24
HETATM   24  N03   D T 601      -1.783 -15.967  -7.024  1.00 51.06    -0.411 N 
BRANCH  24  25
HETATM   25  C02   D T 601      -1.428 -16.754  -5.765  1.00 53.85     0.112 C 
HETATM   26  C01   D T 601      -0.763 -16.001  -4.566  1.00 52.69     0.026 C 
ENDBRANCH  24  25
BRANCH  24  27
HETATM   27  C04   D T 601      -0.716 -15.397  -7.920  1.00 47.80     0.112 C 
HETATM   28  C05   D T 601      -0.571 -15.968  -9.357  1.00 44.89     0.026 C 
ENDBRANCH  24  27
ENDBRANCH  23  24
ENDBRANCH  22  23
ENDBRANCH  21  22
ENDBRANCH  18  21
ENDBRANCH  13  15
ENDBRANCH   1  13
BRANCH   8  29
HETATM   29  C26   D T 601       3.780  -5.147  -9.886  1.00 21.63     0.023 A 
HETATM   30  C27   D T 601       3.838  -3.777 -10.267  1.00 22.75     0.046 A 
HETATM   31 CL28   D T 601       2.504  -3.039 -10.994  1.00 22.59    -0.083 Cl
HETATM   32  C29   D T 601       5.013  -3.001 -10.092  1.00 24.08     0.025 A 
HETATM   33  C30   D T 601       6.147  -3.581  -9.480  1.00 25.63     0.003 A 
HETATM   34  C31   D T 601       6.101  -4.923  -9.077  1.00 25.41     0.025 A 
HETATM   35  C32   D T 601       4.931  -5.698  -9.278  1.00 23.77     0.046 A 
HETATM   36 CL33   D T 601       4.942  -7.314  -8.775  1.00 25.94    -0.083 Cl
ENDBRANCH   8  29
TORSDOF 9
ENDMDL
MODEL 4
REMARK VINA RESULT:    -6.866      1.507      2.554
REMARK INTER + INTRA:         -11.610
REMARK INTER:                 -10.487
REMARK INTRA:                  -1.123
REMARK UNBOUND:                -1.131
REMARK  9 active torsions:
REMARK  status: ('A' for Active; 'I' for Inactive)
REMARK    1  A    between atoms: C02_2  and  N03_3 
REMARK    2  A    between atoms: N03_3  and  C04_4 
REMARK    3  A    between atoms: N03_3  and  C06_6 
REMARK    4  A    between atoms: C06_6  and  C07_7 
REMARK    5  A    between atoms: C07_7  and  O08_8 
REMARK    6  A    between atoms: O08_8  and  C09_9 
REMARK    7  A    between atoms: C12_12  and  N13_13 
REMARK    8  A    between atoms: N13_13  and  C14_14 
REMARK    9  A    between atoms: C21_21  and  C26_26 
ROOT
HETATM    1  C14   D T 601      -0.977  -8.768 -11.663  1.00 17.92     0.728 A 
HETATM    2  N15   D T 601      -0.812  -7.888 -10.655  1.00 19.07    -0.044 NA
HETATM    3  C16   D T 601       0.303  -7.175 -10.447  1.00 18.16     0.163 A 
HETATM    4  C17   D T 601       1.376  -7.377 -11.317  1.00 16.80     0.030 A 
HETATM    5  C18   D T 601       1.229  -8.318 -12.338  1.00 18.08     0.151 A 
HETATM    6  N19   D T 601       0.065  -8.985 -12.484  1.00 16.91    -0.074 NA
HETATM    7  C20   D T 601       2.575  -6.661 -11.123  1.00 17.65     0.034 A 
HETATM    8  C21   D T 601       2.680  -5.736 -10.074  1.00 18.53     0.047 A 
HETATM    9  C22   D T 601       1.561  -5.575  -9.220  1.00 19.48     0.260 A 
HETATM   10  O23   D T 601       1.727  -4.765  -8.284  1.00 21.52    -0.267 OA
HETATM   11  N24   D T 601       0.386  -6.278  -9.412  1.00 19.49    -0.301 N 
HETATM   12  C25   D T 601      -0.786  -6.109  -8.568  1.00 20.07     0.161 C 
ENDROOT
BRANCH   1  13
HETATM   13  N13   D T 601      -2.140  -9.423 -11.799  1.00 20.14    -0.188 N 
HETATM   14 1H13   D T 601      -2.774  -8.978 -12.291  1.00 24.16     0.184 HD
BRANCH  13  15
HETATM   15  C12   D T 601      -2.539 -10.652 -11.321  1.00 24.69     0.049 A 
HETATM   16  C11   D T 601      -3.490 -10.648 -10.267  1.00 26.89     0.033 A 
HETATM   17  C10   D T 601      -3.968 -11.863  -9.729  1.00 28.95     0.039 A 
HETATM   18  C09   D T 601      -3.514 -13.092 -10.256  1.00 30.95     0.069 A 
HETATM   19  C35   D T 601      -2.593 -13.096 -11.318  1.00 28.80     0.039 A 
HETATM   20  C34   D T 601      -2.111 -11.887 -11.832  1.00 26.81     0.033 A 
BRANCH  18  21
HETATM   21  O08   D T 601      -3.988 -14.268  -9.792  1.00 36.09    -0.350 OA
BRANCH  21  22
HETATM   22  C07   D T 601      -3.586 -14.606  -8.436  1.00 42.63     0.195 C 
BRANCH  22  23
HETATM   23  C06   D T 601      -2.627 -15.837  -8.482  1.00 46.85     0.143 C 
BRANCH  23  24
HETATM   24  N03   D T 601      -1.543 -15.809  -7.427  1.00 51.06    -0.411 N 
BRANCH  24  25
HETATM   25  C02   D T 601      -1.805 -16.253  -5.990  1.00 53.85     0.112 C 
HETATM   26  C01   D T 601      -0.651 -16.135  -4.941  1.00 52.69     0.026 C 
ENDBRANCH  24  25
BRANCH  24  27
HETATM   27  C04   D T 601      -0.160 -15.446  -7.897  1.00 47.80     0.112 C 
HETATM   28  C05   D T 601       0.026 -14.985  -9.369  1.00 44.89     0.026 C 
ENDBRANCH  24  27
ENDBRANCH  23  24
ENDBRANCH  22  23
ENDBRANCH  21  22
ENDBRANCH  18  21
ENDBRANCH  13  15
ENDBRANCH   1  13
BRANCH   8  29
HETATM   29  C26   D T 601       3.881  -4.982  -9.868  1.00 21.63     0.023 A 
HETATM   30  C27   D T 601       5.032  -5.604  -9.308  1.00 22.75     0.046 A 
HETATM   31 CL28   D T 601       4.977  -7.224  -8.833  1.00 22.59    -0.083 Cl
HETATM   32  C29   D T 601       6.238  -4.889  -9.093  1.00 24.08     0.025 A 
HETATM   33  C30   D T 601       6.325  -3.534  -9.485  1.00 25.63     0.003 A 
HETATM   34  C31   D T 601       5.209  -2.911 -10.060  1.00 25.41     0.025 A 
HETATM   35  C32   D T 601       3.999  -3.626 -10.249  1.00 23.77     0.046 A 
HETATM   36 CL33   D T 601       2.686  -2.814 -10.942  1.00 25.94    -0.083 Cl
ENDBRANCH   8  29
TORSDOF 9
ENDMDL
MODEL 5
REMARK VINA RESULT:    -6.547      5.188      7.984
REMARK INTER + INTRA:         -11.123
REMARK INTER:                 -10.625
REMARK INTRA:                  -0.498
REMARK UNBOUND:                -1.131
REMARK  9 active torsions:
REMARK  status: ('A' for Active; 'I' for Inactive)
REMARK    1  A    between atoms: C02_2  and  N03_3 
REMARK    2  A    between atoms: N03_3  and  C04_4 
REMARK    3  A    between atoms: N03_3  and  C06_6 
REMARK    4  A    between atoms: C06_6  and  C07_7 
REMARK    5  A    between atoms: C07_7  and  O08_8 
REMARK    6  A    between atoms: O08_8  and  C09_9 
REMARK    7  A    between atoms: C12_12  and  N13_13 
REMARK    8  A    between atoms: N13_13  and  C14_14 
REMARK    9  A    between atoms: C21_21  and  C26_26 
ROOT
HETATM    1  C14   D T 601       4.254  -3.807  -9.629  1.00 17.92     0.728 A 
HETATM    2  N15   D T 601       3.002  -4.142  -9.258  1.00 19.07    -0.044 NA
HETATM    3  C16   D T 601       1.908  -3.427  -9.554  1.00 18.16     0.163 A 
HETATM    4  C17   D T 601       2.080  -2.241 -10.270  1.00 16.80     0.030 A 
HETATM    5  C18   D T 601       3.378  -1.864 -10.620  1.00 18.08     0.151 A 
HETATM    6  N19   D T 601       4.424  -2.650 -10.293  1.00 16.91    -0.074 NA
HETATM    7  C20   D T 601       0.958  -1.449 -10.586  1.00 17.65     0.034 A 
HETATM    8  C21   D T 601      -0.327  -1.862 -10.200  1.00 18.53     0.047 A 
HETATM    9  C22   D T 601      -0.441  -3.072  -9.472  1.00 19.48     0.260 A 
HETATM   10  O23   D T 601      -1.603  -3.370  -9.126  1.00 21.52    -0.267 OA
HETATM   11  N24   D T 601       0.661  -3.848  -9.164  1.00 19.49    -0.301 N 
HETATM   12  C25   D T 601       0.568  -5.108  -8.443  1.00 20.07     0.161 C 
ENDROOT
BRANCH   1  13
HETATM   13  N13   D T 601       5.286  -4.598  -9.298  1.00 20.14    -0.188 N 
HETATM   14 1H13   D T 601       6.084  -4.159  -9.184  1.00 24.16     0.184 HD
BRANCH  13  15
HETATM   15  C12   D T 601       5.346  -5.961  -9.103  1.00 24.69     0.049 A 
HETATM   16  C11   D T 601       6.571  -6.481  -8.610  1.00 26.89     0.033 A 
HETATM   17  C10   D T 601       6.715  -7.864  -8.362  1.00 28.95     0.039 A 
HETATM   18  C09   D T 601       5.627  -8.734  -8.588  1.00 30.95     0.069 A 
HETATM   19  C35   D T 601       4.405  -8.216  -9.049  1.00 28.80     0.039 A 
HETATM   20  C34   D T 601       4.277  -6.847  -9.310  1.00 26.81     0.033 A 
BRANCH  18  21
HETATM   21  O08   D T 601       5.721 -10.055  -8.317  1.00 36.09    -0.350 OA
BRANCH  21  22
HETATM   22  C07   D T 601       5.070 -10.931  -9.277  1.00 42.63     0.195 C 
BRANCH  22  23
HETATM   23  C06   D T 601       4.961 -12.363  -8.665  1.00 46.85     0.143 C 
BRANCH  23  24
HETATM   24  N03   D T 601       3.800 -13.171  -9.199  1.00 51.06    -0.411 N 
BRANCH  24  25
HETATM   25  C02   D T 601       3.610 -13.420 -10.693  1.00 53.85     0.112 C 
HETATM   26  C01   D T 601       4.873 -13.649 -11.587  1.00 52.69     0.026 C 
ENDBRANCH  24  25
BRANCH  24  27
HETATM   27  C04   D T 601       2.912 -13.828  -8.175  1.00 47.80     0.112 C 
HETATM   28  C05   D T 601       3.565 -14.761  -7.118  1.00 44.89     0.026 C 
ENDBRANCH  24  27
ENDBRANCH  23  24
ENDBRANCH  22  23
ENDBRANCH  21  22
ENDBRANCH  18  21
ENDBRANCH  13  15
ENDBRANCH   1  13
BRANCH   8  29
HETATM   29  C26   D T 601      -1.484  -1.084 -10.526  1.00 21.63     0.023 A 
HETATM   30  C27   D T 601      -1.778   0.104  -9.802  1.00 22.75     0.046 A 
HETATM   31 CL28   D T 601      -0.793   0.583  -8.516  1.00 22.59    -0.083 Cl
HETATM   32  C29   D T 601      -2.915   0.900 -10.099  1.00 24.08     0.025 A 
HETATM   33  C30   D T 601      -3.759   0.537 -11.173  1.00 25.63     0.003 A 
HETATM   34  C31   D T 601      -3.472  -0.618 -11.914  1.00 25.41     0.025 A 
HETATM   35  C32   D T 601      -2.348  -1.421 -11.594  1.00 23.77     0.046 A 
HETATM   36 CL33   D T 601      -2.061  -2.807 -12.522  1.00 25.94    -0.083 Cl
ENDBRANCH   8  29
TORSDOF 9
ENDMDL
MODEL 6
REMARK VINA RESULT:    -6.396      1.330      2.438
REMARK INTER + INTRA:         -10.892
REMARK INTER:                  -9.290
REMARK INTRA:                  -1.603
REMARK UNBOUND:                -1.131
REMARK  9 active torsions:
REMARK  status: ('A' for Active; 'I' for Inactive)
REMARK    1  A    between atoms: C02_2  and  N03_3 
REMARK    2  A    between atoms: N03_3  and  C04_4 
REMARK    3  A    between atoms: N03_3  and  C06_6 
REMARK    4  A    between atoms: C06_6  and  C07_7 
REMARK    5  A    between atoms: C07_7  and  O08_8 
REMARK    6  A    between atoms: O08_8  and  C09_9 
REMARK    7  A    between atoms: C12_12  and  N13_13 
REMARK    8  A    between atoms: N13_13  and  C14_14 
REMARK    9  A    between atoms: C21_21  and  C26_26 
ROOT
HETATM    1  C14   D T 601      -1.622  -6.710  -9.921  1.00 17.92     0.728 A 
HETATM    2  N15   D T 601      -0.596  -6.755 -10.794  1.00 19.07    -0.044 NA
HETATM    3  C16   D T 601       0.653  -6.359 -10.515  1.00 18.16     0.163 A 
HETATM    4  C17   D T 601       0.902  -5.838  -9.244  1.00 16.80     0.030 A 
HETATM    5  C18   D T 601      -0.165  -5.748  -8.348  1.00 18.08     0.151 A 
HETATM    6  N19   D T 601      -1.391  -6.183  -8.706  1.00 16.91    -0.074 NA
HETATM    7  C20   D T 601       2.197  -5.391  -8.914  1.00 17.65     0.034 A 
HETATM    8  C21   D T 601       3.235  -5.489  -9.854  1.00 18.53     0.047 A 
HETATM    9  C22   D T 601       2.925  -6.021 -11.129  1.00 19.48     0.260 A 
HETATM   10  O23   D T 601       3.879  -6.050 -11.933  1.00 21.52    -0.267 OA
HETATM   11  N24   D T 601       1.653  -6.459 -11.449  1.00 19.49    -0.301 N 
HETATM   12  C25   D T 601       1.315  -7.036 -12.742  1.00 20.07     0.161 C 
ENDROOT
BRANCH   1  13
HETATM   13  N13   D T 601      -2.836  -7.148 -10.290  1.00 20.14    -0.188 N 
HETATM   14 1H13   D T 601      -3.444  -6.484 -10.466  1.00 24.16     0.184 HD
BRANCH  13  15
HETATM   15  C12   D T 601      -3.318  -8.429 -10.448  1.00 24.69     0.049 A 
HETATM   16  C11   D T 601      -3.759  -8.788 -11.749  1.00 26.89     0.033 A 
HETATM   17  C10   D T 601      -4.252 -10.086 -12.006  1.00 28.95     0.039 A 
HETATM   18  C09   D T 601      -4.288 -11.042 -10.967  1.00 30.95     0.069 A 
HETATM   19  C35   D T 601      -3.826 -10.695  -9.686  1.00 28.80     0.039 A 
HETATM   20  C34   D T 601      -3.357  -9.401  -9.436  1.00 26.81     0.033 A 
BRANCH  18  21
HETATM   21  O08   D T 601      -4.712 -12.304 -11.195  1.00 36.09    -0.350 OA
BRANCH  21  22
HETATM   22  C07   D T 601      -4.048 -13.330 -10.407  1.00 42.63     0.195 C 
BRANCH  22  23
HETATM   23  C06   D T 601      -3.217 -14.245 -11.362  1.00 46.85     0.143 C 
BRANCH  23  24
HETATM   24  N03   D T 601      -1.721 -14.133 -11.170  1.00 51.06    -0.411 N 
BRANCH  24  25
HETATM   25  C02   D T 601      -0.897 -15.274 -10.577  1.00 53.85     0.112 C 
HETATM   26  C01   D T 601      -0.464 -15.192  -9.077  1.00 52.69     0.026 C 
ENDBRANCH  24  25
BRANCH  24  27
HETATM   27  C04   D T 601      -1.066 -12.891 -11.712  1.00 47.80     0.112 C 
HETATM   28  C05   D T 601      -1.488 -12.385 -13.119  1.00 44.89     0.026 C 
ENDBRANCH  24  27
ENDBRANCH  23  24
ENDBRANCH  22  23
ENDBRANCH  21  22
ENDBRANCH  18  21
ENDBRANCH  13  15
ENDBRANCH   1  13
BRANCH   8  29
HETATM   29  C26   D T 601       4.564  -5.060  -9.536  1.00 21.63     0.023 A 
HETATM   30  C27   D T 601       4.937  -3.696  -9.698  1.00 22.75     0.046 A 
HETATM   31 CL28   D T 601       3.830  -2.579 -10.314  1.00 22.59    -0.083 Cl
HETATM   32  C29   D T 601       6.243  -3.235  -9.391  1.00 24.08     0.025 A 
HETATM   33  C30   D T 601       7.195  -4.138  -8.865  1.00 25.63     0.003 A 
HETATM   34  C31   D T 601       6.840  -5.481  -8.677  1.00 25.41     0.025 A 
HETATM   35  C32   D T 601       5.540  -5.938  -9.009  1.00 23.77     0.046 A 
HETATM   36 CL33   D T 601       5.175  -7.573  -8.765  1.00 25.94    -0.083 Cl
ENDBRANCH   8  29
TORSDOF 9
ENDMDL
MODEL 7
REMARK VINA RESULT:    -6.370      5.824     11.617
REMARK INTER + INTRA:         -10.853
REMARK INTER:                  -9.661
REMARK INTRA:                  -1.192
REMARK UNBOUND:                -1.131
REMARK  9 active torsions:
REMARK  status: ('A' for Active; 'I' for Inactive)
REMARK    1  A    between atoms: C02_2  and  N03_3 
REMARK    2  A    between atoms: N03_3  and  C04_4 
REMARK    3  A    between atoms: N03_3  and  C06_6 
REMARK    4  A    between atoms: C06_6  and  C07_7 
REMARK    5  A    between atoms: C07_7  and  O08_8 
REMARK    6  A    between atoms: O08_8  and  C09_9 
REMARK    7  A    between atoms: C12_12  and  N13_13 
REMARK    8  A    between atoms: N13_13  and  C14_14 
REMARK    9  A    between atoms: C21_21  and  C26_26 
ROOT
HETATM    1  C14   D T 601       5.287 -11.047  -8.845  1.00 17.92     0.728 A 
HETATM    2  N15   D T 601       4.585 -12.122  -8.433  1.00 19.07    -0.044 NA
HETATM    3  C16   D T 601       4.327 -13.194  -9.193  1.00 18.16     0.163 A 
HETATM    4  C17   D T 601       4.793 -13.186 -10.510  1.00 16.80     0.030 A 
HETATM    5  C18   D T 601       5.484 -12.058 -10.958  1.00 18.08     0.151 A 
HETATM    6  N19   D T 601       5.711 -11.025 -10.120  1.00 16.91    -0.074 NA
HETATM    7  C20   D T 601       4.527 -14.285 -11.350  1.00 17.65     0.034 A 
HETATM    8  C21   D T 601       3.816 -15.391 -10.859  1.00 18.53     0.047 A 
HETATM    9  C22   D T 601       3.364 -15.343  -9.518  1.00 19.48     0.260 A 
HETATM   10  O23   D T 601       2.708 -16.339  -9.149  1.00 21.52    -0.267 OA
HETATM   11  N24   D T 601       3.627 -14.264  -8.695  1.00 19.49    -0.301 N 
HETATM   12  C25   D T 601       3.199 -14.203  -7.305  1.00 20.07     0.161 C 
ENDROOT
BRANCH   1  13
HETATM   13  N13   D T 601       5.509 -10.027  -8.001  1.00 20.14    -0.188 N 
HETATM   14 1H13   D T 601       5.522 -10.262  -7.113  1.00 24.16     0.184 HD
BRANCH  13  15
HETATM   15  C12   D T 601       5.720  -8.688  -8.247  1.00 24.69     0.049 A 
HETATM   16  C11   D T 601       4.747  -8.026  -9.042  1.00 26.89     0.033 A 
HETATM   17  C10   D T 601       4.874  -6.649  -9.330  1.00 28.95     0.039 A 
HETATM   18  C09   D T 601       5.964  -5.920  -8.807  1.00 30.95     0.069 A 
HETATM   19  C35   D T 601       6.911  -6.569  -7.997  1.00 28.80     0.039 A 
HETATM   20  C34   D T 601       6.788  -7.937  -7.733  1.00 26.81     0.033 A 
BRANCH  18  21
HETATM   21  O08   D T 601       6.086  -4.593  -9.028  1.00 36.09    -0.350 OA
BRANCH  21  22
HETATM   22  C07   D T 601       5.088  -4.019  -9.916  1.00 42.63     0.195 C 
BRANCH  22  23
HETATM   23  C06   D T 601       4.447  -2.775  -9.224  1.00 46.85     0.143 C 
BRANCH  23  24
HETATM   24  N03   D T 601       2.967  -2.619  -9.491  1.00 51.06    -0.411 N 
BRANCH  24  25
HETATM   25  C02   D T 601       2.090  -3.803  -9.889  1.00 53.85     0.112 C 
HETATM   26  C01   D T 601       1.498  -4.717  -8.766  1.00 52.69     0.026 C 
ENDBRANCH  24  25
BRANCH  24  27
HETATM   27  C04   D T 601       2.375  -1.262  -9.217  1.00 47.80     0.112 C 
HETATM   28  C05   D T 601       0.931  -0.970  -9.711  1.00 44.89     0.026 C 
ENDBRANCH  24  27
ENDBRANCH  23  24
ENDBRANCH  22  23
ENDBRANCH  21  22
ENDBRANCH  18  21
ENDBRANCH  13  15
ENDBRANCH   1  13
BRANCH   8  29
HETATM   29  C26   D T 601       3.551 -16.528 -11.688  1.00 21.63     0.023 A 
HETATM   30  C27   D T 601       2.378 -16.572 -12.494  1.00 22.75     0.046 A 
HETATM   31 CL28   D T 601       1.262 -15.305 -12.441  1.00 22.59    -0.083 Cl
HETATM   32  C29   D T 601       2.085 -17.681 -13.328  1.00 24.08     0.025 A 
HETATM   33  C30   D T 601       2.998 -18.757 -13.405  1.00 25.63     0.003 A 
HETATM   34  C31   D T 601       4.170 -18.721 -12.637  1.00 25.41     0.025 A 
HETATM   35  C32   D T 601       4.444 -17.620 -11.787  1.00 23.77     0.046 A 
HETATM   36 CL33   D T 601       5.872 -17.641 -10.879  1.00 25.94    -0.083 Cl
ENDBRANCH   8  29
TORSDOF 9
ENDMDL
MODEL 8
REMARK VINA RESULT:    -6.287      6.098      9.268
REMARK INTER + INTRA:         -10.725
REMARK INTER:                  -9.956
REMARK INTRA:                  -0.770
REMARK UNBOUND:                -1.131
REMARK  9 active torsions:
REMARK  status: ('A' for Active; 'I' for Inactive)
REMARK    1  A    between atoms: C02_2  and  N03_3 
REMARK    2  A    between atoms: N03_3  and  C04_4 
REMARK    3  A    between atoms: N03_3  and  C06_6 
REMARK    4  A    between atoms: C06_6  and  C07_7 
REMARK    5  A    between atoms: C07_7  and  O08_8 
REMARK    6  A    between atoms: O08_8  and  C09_9 
REMARK    7  A    between atoms: C12_12  and  N13_13 
REMARK    8  A    between atoms: N13_13  and  C14_14 
REMARK    9  A    between atoms: C21_21  and  C26_26 
ROOT
HETATM    1  C14   D T 601       4.018  -2.252 -10.172  1.00 17.92     0.728 A 
HETATM    2  N15   D T 601       3.021  -3.148 -10.319  1.00 19.07    -0.044 NA
HETATM    3  C16   D T 601       1.720  -2.831 -10.371  1.00 18.16     0.163 A 
HETATM    4  C17   D T 601       1.372  -1.486 -10.235  1.00 16.80     0.030 A 
HETATM    5  C18   D T 601       2.395  -0.557 -10.039  1.00 18.08     0.151 A 
HETATM    6  N19   D T 601       3.682  -0.960 -10.012  1.00 16.91    -0.074 NA
HETATM    7  C20   D T 601       0.014  -1.111 -10.264  1.00 17.65     0.034 A 
HETATM    8  C21   D T 601      -0.981  -2.084 -10.449  1.00 18.53     0.047 A 
HETATM    9  C22   D T 601      -0.570  -3.433 -10.577  1.00 19.48     0.260 A 
HETATM   10  O23   D T 601      -1.501  -4.256 -10.704  1.00 21.52    -0.267 OA
HETATM   11  N24   D T 601       0.763  -3.798 -10.549  1.00 19.49    -0.301 N 
HETATM   12  C25   D T 601       1.212  -5.173 -10.707  1.00 20.07     0.161 C 
ENDROOT
BRANCH   1  13
HETATM   13  N13   D T 601       5.294  -2.666 -10.149  1.00 20.14    -0.188 N 
HETATM   14 1H13   D T 601       5.845  -2.239 -10.747  1.00 24.16     0.184 HD
BRANCH  13  15
HETATM   15  C12   D T 601       5.913  -3.626  -9.378  1.00 24.69     0.049 A 
HETATM   16  C11   D T 601       5.574  -4.978  -9.650  1.00 26.89     0.033 A 
HETATM   17  C10   D T 601       6.173  -6.027  -8.921  1.00 28.95     0.039 A 
HETATM   18  C09   D T 601       7.132  -5.734  -7.927  1.00 30.95     0.069 A 
HETATM   19  C35   D T 601       7.488  -4.397  -7.677  1.00 28.80     0.039 A 
HETATM   20  C34   D T 601       6.875  -3.363  -8.391  1.00 26.81     0.033 A 
BRANCH  18  21
HETATM   21  O08   D T 601       7.755  -6.720  -7.245  1.00 36.09    -0.350 OA
BRANCH  21  22
HETATM   22  C07   D T 601       7.382  -8.071  -7.631  1.00 42.63     0.195 C 
BRANCH  22  23
HETATM   23  C06   D T 601       6.082  -8.476  -6.866  1.00 46.85     0.143 C 
BRANCH  23  24
HETATM   24  N03   D T 601       5.062  -9.189  -7.726  1.00 51.06    -0.411 N 
BRANCH  24  25
HETATM   25  C02   D T 601       5.310 -10.591  -8.275  1.00 53.85     0.112 C 
HETATM   26  C01   D T 601       5.115 -10.848  -9.805  1.00 52.69     0.026 C 
ENDBRANCH  24  25
BRANCH  24  27
HETATM   27  C04   D T 601       3.736  -8.498  -7.905  1.00 47.80     0.112 C 
HETATM   28  C05   D T 601       3.365  -7.961  -9.315  1.00 44.89     0.026 C 
ENDBRANCH  24  27
ENDBRANCH  23  24
ENDBRANCH  22  23
ENDBRANCH  21  22
ENDBRANCH  18  21
ENDBRANCH  13  15
ENDBRANCH   1  13
BRANCH   8  29
HETATM   29  C26   D T 601      -2.367  -1.725 -10.502  1.00 21.63     0.023 A 
HETATM   30  C27   D T 601      -3.134  -1.646  -9.306  1.00 22.75     0.046 A 
HETATM   31 CL28   D T 601      -2.431  -2.024  -7.818  1.00 22.59    -0.083 Cl
HETATM   32  C29   D T 601      -4.508  -1.292  -9.321  1.00 24.08     0.025 A 
HETATM   33  C30   D T 601      -5.130  -0.961 -10.547  1.00 25.63     0.003 A 
HETATM   34  C31   D T 601      -4.384  -1.010 -11.732  1.00 25.41     0.025 A 
HETATM   35  C32   D T 601      -3.018  -1.389 -11.712  1.00 23.77     0.046 A 
HETATM   36 CL33   D T 601      -2.175  -1.436 -13.178  1.00 25.94    -0.083 Cl
ENDBRANCH   8  29
TORSDOF 9
ENDMDL
MODEL 9
REMARK VINA RESULT:    -6.255     16.521     20.702
REMARK INTER + INTRA:         -10.677
REMARK INTER:                  -9.384
REMARK INTRA:                  -1.293
REMARK UNBOUND:                -1.131
REMARK  9 active torsions:
REMARK  status: ('A' for Active; 'I' for Inactive)
REMARK    1  A    between atoms: C02_2  and  N03_3 
REMARK    2  A    between atoms: N03_3  and  C04_4 
REMARK    3  A    between atoms: N03_3  and  C06_6 
REMARK    4  A    between atoms: C06_6  and  C07_7 
REMARK    5  A    between atoms: C07_7  and  O08_8 
REMARK    6  A    between atoms: O08_8  and  C09_9 
REMARK    7  A    between atoms: C12_12  and  N13_13 
REMARK    8  A    between atoms: N13_13  and  C14_14 
REMARK    9  A    between atoms: C21_21  and  C26_26 
ROOT
HETATM    1  C14   D T 601      17.685  -9.989  -1.768  1.00 17.92     0.728 A 
HETATM    2  N15   D T 601      16.919 -10.001  -2.878  1.00 19.07    -0.044 NA
HETATM    3  C16   D T 601      16.655 -11.097  -3.602  1.00 18.16     0.163 A 
HETATM    4  C17   D T 601      17.234 -12.301  -3.197  1.00 16.80     0.030 A 
HETATM    5  C18   D T 601      18.064 -12.288  -2.074  1.00 18.08     0.151 A 
HETATM    6  N19   D T 601      18.267 -11.141  -1.393  1.00 16.91    -0.074 NA
HETATM    7  C20   D T 601      16.998 -13.473  -3.942  1.00 17.65     0.034 A 
HETATM    8  C21   D T 601      16.168 -13.434  -5.073  1.00 18.53     0.047 A 
HETATM    9  C22   D T 601      15.611 -12.184  -5.440  1.00 19.48     0.260 A 
HETATM   10  O23   D T 601      14.911 -12.205  -6.474  1.00 21.52    -0.267 OA
HETATM   11  N24   D T 601      15.843 -11.035  -4.708  1.00 19.49    -0.301 N 
HETATM   12  C25   D T 601      15.260  -9.746  -5.047  1.00 20.07     0.161 C 
ENDROOT
BRANCH   1  13
HETATM   13  N13   D T 601      17.877  -8.841  -1.099  1.00 20.14    -0.188 N 
HETATM   14 1H13   D T 601      18.394  -8.224  -1.539  1.00 24.16     0.184 HD
BRANCH  13  15
HETATM   15  C12   D T 601      17.426  -8.438   0.139  1.00 24.69     0.049 A 
HETATM   16  C11   D T 601      18.385  -8.404   1.186  1.00 26.89     0.033 A 
HETATM   17  C10   D T 601      18.015  -7.986   2.483  1.00 28.95     0.039 A 
HETATM   18  C09   D T 601      16.688  -7.579   2.738  1.00 30.95     0.069 A 
HETATM   19  C35   D T 601      15.745  -7.586   1.695  1.00 28.80     0.039 A 
HETATM   20  C34   D T 601      16.116  -8.020   0.418  1.00 26.81     0.033 A 
BRANCH  18  21
HETATM   21  O08   D T 601      16.316  -7.131   3.957  1.00 36.09    -0.350 OA
BRANCH  21  22
HETATM   22  C07   D T 601      15.801  -5.772   3.986  1.00 42.63     0.195 C 
BRANCH  22  23
HETATM   23  C06   D T 601      17.001  -4.775   4.052  1.00 46.85     0.143 C 
BRANCH  23  24
HETATM   24  N03   D T 601      17.145  -3.907   2.822  1.00 51.06    -0.411 N 
BRANCH  24  25
HETATM   25  C02   D T 601      18.410  -3.095   2.552  1.00 53.85     0.112 C 
HETATM   26  C01   D T 601      18.354  -1.539   2.703  1.00 52.69     0.026 C 
ENDBRANCH  24  25
BRANCH  24  27
HETATM   27  C04   D T 601      16.032  -3.985   1.811  1.00 47.80     0.112 C 
HETATM   28  C05   D T 601      14.962  -2.858   1.800  1.00 44.89     0.026 C 
ENDBRANCH  24  27
ENDBRANCH  23  24
ENDBRANCH  22  23
ENDBRANCH  21  22
ENDBRANCH  18  21
ENDBRANCH  13  15
ENDBRANCH   1  13
BRANCH   8  29
HETATM   29  C26   D T 601      15.898 -14.616  -5.835  1.00 21.63     0.023 A 
HETATM   30  C27   D T 601      14.706 -15.359  -5.608  1.00 22.75     0.046 A 
HETATM   31 CL28   D T 601      13.622 -14.883  -4.403  1.00 22.59    -0.083 Cl
HETATM   32  C29   D T 601      14.404 -16.534  -6.345  1.00 24.08     0.025 A 
HETATM   33  C30   D T 601      15.282 -16.960  -7.368  1.00 25.63     0.003 A 
HETATM   34  C31   D T 601      16.450 -16.227  -7.622  1.00 25.41     0.025 A 
HETATM   35  C32   D T 601      16.756 -15.068  -6.864  1.00 23.77     0.046 A 
HETATM   36 CL33   D T 601      18.185 -14.232  -7.215  1.00 25.94    -0.083 Cl
ENDBRANCH   8  29
TORSDOF 9
ENDMDL
