MODEL 1
REMARK VINA RESULT:    -8.105      0.000      0.000
REMARK INTER + INTRA:         -12.906
REMARK INTER:                 -12.369
REMARK INTRA:                  -0.537
REMARK UNBOUND:                -0.537
REMARK  9 active torsions:
REMARK  status: ('A' for Active; 'I' for Inactive)
REMARK    1  A    between atoms: C02_2  and  N03_3 
REMARK    2  A    between atoms: N03_3  and  C04_4 
REMARK    3  A    between atoms: N03_3  and  C06_6 
REMARK    4  A    between atoms: C06_6  and  C07_7 
REMARK    5  A    between atoms: C07_7  and  O08_8 
REMARK    6  A    between atoms: O08_8  and  C09_9 
REMARK    7  A    between atoms: C12_12  and  N13_13 
REMARK    8  A    between atoms: N13_13  and  C14_14 
REMARK    9  A    between atoms: C21_21  and  C26_26 
ROOT
HETATM    1  C14   D T 601     -10.148   3.460  -5.335  1.00 17.92     0.728 A 
HETATM    2  N15   D T 601     -11.481   3.563  -5.167  1.00 19.07    -0.044 NA
HETATM    3  C16   D T 601     -12.068   4.204  -4.147  1.00 18.16     0.163 A 
HETATM    4  C17   D T 601     -11.242   4.782  -3.180  1.00 16.80     0.030 A 
HETATM    5  C18   D T 601      -9.861   4.642  -3.326  1.00 18.08     0.151 A 
HETATM    6  N19   D T 601      -9.352   3.989  -4.390  1.00 16.91    -0.074 NA
HETATM    7  C20   D T 601     -11.817   5.450  -2.081  1.00 17.65     0.034 A 
HETATM    8  C21   D T 601     -13.214   5.552  -1.971  1.00 18.53     0.047 A 
HETATM    9  C22   D T 601     -14.001   4.943  -2.979  1.00 19.48     0.260 A 
HETATM   10  O23   D T 601     -15.235   5.036  -2.809  1.00 21.52    -0.267 OA
HETATM   11  N24   D T 601     -13.435   4.289  -4.058  1.00 19.49    -0.301 N 
HETATM   12  C25   D T 601     -14.221   3.681  -5.119  1.00 20.07     0.161 C 
ENDROOT
BRANCH   1  13
HETATM   13  N13   D T 601      -9.655   2.809  -6.401  1.00 20.14    -0.188 N 
HETATM   14 1H13   D T 601      -8.869   3.152  -6.729  1.00 24.16     0.184 HD
BRANCH  13  15
HETATM   15  C12   D T 601     -10.132   1.712  -7.083  1.00 24.69     0.049 A 
HETATM   16  C11   D T 601     -11.543   1.584  -7.176  1.00 26.89     0.033 A 
HETATM   17  C10   D T 601     -12.120   0.500  -7.873  1.00 28.95     0.039 A 
HETATM   18  C09   D T 601     -11.289  -0.455  -8.498  1.00 30.95     0.069 A 
HETATM   19  C35   D T 601      -9.891  -0.313  -8.430  1.00 28.80     0.039 A 
HETATM   20  C34   D T 601      -9.329   0.754  -7.722  1.00 26.81     0.033 A 
BRANCH  18  21
HETATM   21  O08   D T 601     -11.813  -1.477  -9.209  1.00 36.09    -0.350 OA
BRANCH  21  22
HETATM   22  C07   D T 601     -13.225  -1.735  -8.974  1.00 42.63     0.195 C 
BRANCH  22  23
HETATM   23  C06   D T 601     -13.369  -3.035  -8.122  1.00 46.85     0.143 C 
BRANCH  23  24
HETATM   24  N03   D T 601     -14.252  -2.876  -6.905  1.00 51.06    -0.411 N 
BRANCH  24  25
HETATM   25  C02   D T 601     -14.927  -1.550  -6.565  1.00 53.85     0.112 C 
HETATM   26  C01   D T 601     -14.348  -0.686  -5.396  1.00 52.69     0.026 C 
ENDBRANCH  24  25
BRANCH  24  27
HETATM   27  C04   D T 601     -14.538  -4.126  -6.115  1.00 47.80     0.112 C 
HETATM   28  C05   D T 601     -15.930  -4.276  -5.441  1.00 44.89     0.026 C 
ENDBRANCH  24  27
ENDBRANCH  23  24
ENDBRANCH  22  23
ENDBRANCH  21  22
ENDBRANCH  18  21
ENDBRANCH  13  15
ENDBRANCH   1  13
BRANCH   8  29
HETATM   29  C26   D T 601     -13.821   6.242  -0.874  1.00 21.63     0.023 A 
HETATM   30  C27   D T 601     -14.435   5.512   0.183  1.00 22.75     0.046 A 
HETATM   31 CL28   D T 601     -14.500   3.826   0.127  1.00 22.59    -0.083 Cl
HETATM   32  C29   D T 601     -15.042   6.165   1.287  1.00 24.08     0.025 A 
HETATM   33  C30   D T 601     -15.002   7.574   1.373  1.00 25.63     0.003 A 
HETATM   34  C31   D T 601     -14.381   8.309   0.354  1.00 25.41     0.025 A 
HETATM   35  C32   D T 601     -13.797   7.652  -0.758  1.00 23.77     0.046 A 
HETATM   36 CL33   D T 601     -13.070   8.596  -1.959  1.00 25.94    -0.083 Cl
ENDBRANCH   8  29
TORSDOF 9
ENDMDL
MODEL 2
REMARK VINA RESULT:    -7.935      4.142      5.570
REMARK INTER + INTRA:         -12.647
REMARK INTER:                 -11.646
REMARK INTRA:                  -1.001
REMARK UNBOUND:                -0.537
REMARK  9 active torsions:
REMARK  status: ('A' for Active; 'I' for Inactive)
REMARK    1  A    between atoms: C02_2  and  N03_3 
REMARK    2  A    between atoms: N03_3  and  C04_4 
REMARK    3  A    between atoms: N03_3  and  C06_6 
REMARK    4  A    between atoms: C06_6  and  C07_7 
REMARK    5  A    between atoms: C07_7  and  O08_8 
REMARK    6  A    between atoms: O08_8  and  C09_9 
REMARK    7  A    between atoms: C12_12  and  N13_13 
REMARK    8  A    between atoms: N13_13  and  C14_14 
REMARK    9  A    between atoms: C21_21  and  C26_26 
ROOT
HETATM    1  C14   D T 601     -14.444   2.455  -4.380  1.00 17.92     0.728 A 
HETATM    2  N15   D T 601     -15.782   2.608  -4.315  1.00 19.07    -0.044 NA
HETATM    3  C16   D T 601     -16.498   2.532  -3.185  1.00 18.16     0.163 A 
HETATM    4  C17   D T 601     -15.816   2.248  -2.000  1.00 16.80     0.030 A 
HETATM    5  C18   D T 601     -14.436   2.046  -2.067  1.00 18.08     0.151 A 
HETATM    6  N19   D T 601     -13.790   2.152  -3.246  1.00 16.91    -0.074 NA
HETATM    7  C20   D T 601     -16.532   2.140  -0.791  1.00 17.65     0.034 A 
HETATM    8  C21   D T 601     -17.923   2.338  -0.777  1.00 18.53     0.047 A 
HETATM    9  C22   D T 601     -18.562   2.618  -2.010  1.00 19.48     0.260 A 
HETATM   10  O23   D T 601     -19.802   2.749  -1.940  1.00 21.52    -0.267 OA
HETATM   11  N24   D T 601     -17.857   2.725  -3.194  1.00 19.49    -0.301 N 
HETATM   12  C25   D T 601     -18.487   3.039  -4.467  1.00 20.07     0.161 C 
ENDROOT
BRANCH   1  13
HETATM   13  N13   D T 601     -13.813   2.566  -5.560  1.00 20.14    -0.188 N 
HETATM   14 1H13   D T 601     -13.742   3.424  -5.877  1.00 24.16     0.184 HD
BRANCH  13  15
HETATM   15  C12   D T 601     -13.254   1.605  -6.373  1.00 24.69     0.049 A 
HETATM   16  C11   D T 601     -14.032   0.442  -6.613  1.00 26.89     0.033 A 
HETATM   17  C10   D T 601     -13.546  -0.586  -7.449  1.00 28.95     0.039 A 
HETATM   18  C09   D T 601     -12.284  -0.451  -8.067  1.00 30.95     0.069 A 
HETATM   19  C35   D T 601     -11.525   0.714  -7.852  1.00 28.80     0.039 A 
HETATM   20  C34   D T 601     -12.007   1.719  -7.007  1.00 26.81     0.033 A 
BRANCH  18  21
HETATM   21  O08   D T 601     -11.813  -1.398  -8.908  1.00 36.09    -0.350 OA
BRANCH  21  22
HETATM   22  C07   D T 601     -12.827  -2.245  -9.516  1.00 42.63     0.195 C 
BRANCH  22  23
HETATM   23  C06   D T 601     -12.196  -3.633  -9.848  1.00 46.85     0.143 C 
BRANCH  23  24
HETATM   24  N03   D T 601     -11.974  -3.867 -11.326  1.00 51.06    -0.411 N 
BRANCH  24  25
HETATM   25  C02   D T 601     -10.726  -3.362 -12.044  1.00 53.85     0.112 C 
HETATM   26  C01   D T 601     -10.843  -2.924 -13.542  1.00 52.69     0.026 C 
ENDBRANCH  24  25
BRANCH  24  27
HETATM   27  C04   D T 601     -12.984  -4.738 -12.026  1.00 47.80     0.112 C 
HETATM   28  C05   D T 601     -12.553  -6.163 -12.470  1.00 44.89     0.026 C 
ENDBRANCH  24  27
ENDBRANCH  23  24
ENDBRANCH  22  23
ENDBRANCH  21  22
ENDBRANCH  18  21
ENDBRANCH  13  15
ENDBRANCH   1  13
BRANCH   8  29
HETATM   29  C26   D T 601     -18.670   2.252   0.441  1.00 21.63     0.023 A 
HETATM   30  C27   D T 601     -18.722   3.363   1.330  1.00 22.75     0.046 A 
HETATM   31 CL28   D T 601     -17.862   4.774   0.983  1.00 22.59    -0.083 Cl
HETATM   32  C29   D T 601     -19.455   3.314   2.544  1.00 24.08     0.025 A 
HETATM   33  C30   D T 601     -20.195   2.154   2.866  1.00 25.63     0.003 A 
HETATM   34  C31   D T 601     -20.175   1.059   1.992  1.00 25.41     0.025 A 
HETATM   35  C32   D T 601     -19.420   1.106   0.792  1.00 23.77     0.046 A 
HETATM   36 CL33   D T 601     -19.431  -0.252  -0.217  1.00 25.94    -0.083 Cl
ENDBRANCH   8  29
TORSDOF 9
ENDMDL
MODEL 3
REMARK VINA RESULT:    -7.891      3.955      9.384
REMARK INTER + INTRA:         -12.579
REMARK INTER:                 -11.513
REMARK INTRA:                  -1.066
REMARK UNBOUND:                -0.537
REMARK  9 active torsions:
REMARK  status: ('A' for Active; 'I' for Inactive)
REMARK    1  A    between atoms: C02_2  and  N03_3 
REMARK    2  A    between atoms: N03_3  and  C04_4 
REMARK    3  A    between atoms: N03_3  and  C06_6 
REMARK    4  A    between atoms: C06_6  and  C07_7 
REMARK    5  A    between atoms: C07_7  and  O08_8 
REMARK    6  A    between atoms: O08_8  and  C09_9 
REMARK    7  A    between atoms: C12_12  and  N13_13 
REMARK    8  A    between atoms: N13_13  and  C14_14 
REMARK    9  A    between atoms: C21_21  and  C26_26 
ROOT
HETATM    1  C14   D T 601     -11.707  -0.163  -8.067  1.00 17.92     0.728 A 
HETATM    2  N15   D T 601     -12.806   0.021  -7.307  1.00 19.07    -0.044 NA
HETATM    3  C16   D T 601     -13.889  -0.766  -7.339  1.00 18.16     0.163 A 
HETATM    4  C17   D T 601     -13.892  -1.834  -8.239  1.00 16.80     0.030 A 
HETATM    5  C18   D T 601     -12.775  -2.006  -9.060  1.00 18.08     0.151 A 
HETATM    6  N19   D T 601     -11.720  -1.173  -8.955  1.00 16.91    -0.074 NA
HETATM    7  C20   D T 601     -15.019  -2.676  -8.320  1.00 17.65     0.034 A 
HETATM    8  C21   D T 601     -16.124  -2.454  -7.483  1.00 18.53     0.047 A 
HETATM    9  C22   D T 601     -16.068  -1.353  -6.593  1.00 19.48     0.260 A 
HETATM   10  O23   D T 601     -17.094  -1.186  -5.901  1.00 21.52    -0.267 OA
HETATM   11  N24   D T 601     -14.961  -0.529  -6.515  1.00 19.49    -0.301 N 
HETATM   12  C25   D T 601     -14.868   0.590  -5.591  1.00 20.07     0.161 C 
ENDROOT
BRANCH   1  13
HETATM   13  N13   D T 601     -10.663   0.672  -7.951  1.00 20.14    -0.188 N 
HETATM   14 1H13   D T 601     -10.071   0.645  -8.651  1.00 24.16     0.184 HD
BRANCH  13  15
HETATM   15  C12   D T 601     -10.333   1.563  -6.953  1.00 24.69     0.049 A 
HETATM   16  C11   D T 601      -8.956   1.674  -6.628  1.00 26.89     0.033 A 
HETATM   17  C10   D T 601      -8.525   2.576  -5.631  1.00 28.95     0.039 A 
HETATM   18  C09   D T 601      -9.468   3.387  -4.963  1.00 30.95     0.069 A 
HETATM   19  C35   D T 601     -10.830   3.297  -5.305  1.00 28.80     0.039 A 
HETATM   20  C34   D T 601     -11.249   2.387  -6.281  1.00 26.81     0.033 A 
BRANCH  18  21
HETATM   21  O08   D T 601      -9.080   4.291  -4.037  1.00 36.09    -0.350 OA
BRANCH  21  22
HETATM   22  C07   D T 601      -9.710   5.597  -4.144  1.00 42.63     0.195 C 
BRANCH  22  23
HETATM   23  C06   D T 601     -10.205   6.040  -2.732  1.00 46.85     0.143 C 
BRANCH  23  24
HETATM   24  N03   D T 601     -11.710   6.134  -2.612  1.00 51.06    -0.411 N 
BRANCH  24  25
HETATM   25  C02   D T 601     -12.577   4.907  -2.347  1.00 53.85     0.112 C 
HETATM   26  C01   D T 601     -13.859   4.687  -3.217  1.00 52.69     0.026 C 
ENDBRANCH  24  25
BRANCH  24  27
HETATM   27  C04   D T 601     -12.299   7.520  -2.636  1.00 47.80     0.112 C 
HETATM   28  C05   D T 601     -12.588   8.179  -4.013  1.00 44.89     0.026 C 
ENDBRANCH  24  27
ENDBRANCH  23  24
ENDBRANCH  22  23
ENDBRANCH  21  22
ENDBRANCH  18  21
ENDBRANCH  13  15
ENDBRANCH   1  13
BRANCH   8  29
HETATM   29  C26   D T 601     -17.273  -3.308  -7.532  1.00 21.63     0.023 A 
HETATM   30  C27   D T 601     -17.386  -4.412  -6.641  1.00 22.75     0.046 A 
HETATM   31 CL28   D T 601     -16.142  -4.757  -5.551  1.00 22.59    -0.083 Cl
HETATM   32  C29   D T 601     -18.511  -5.275  -6.660  1.00 24.08     0.025 A 
HETATM   33  C30   D T 601     -19.575  -5.015  -7.552  1.00 25.63     0.003 A 
HETATM   34  C31   D T 601     -19.493  -3.919  -8.421  1.00 25.41     0.025 A 
HETATM   35  C32   D T 601     -18.354  -3.074  -8.413  1.00 23.77     0.046 A 
HETATM   36 CL33   D T 601     -18.312  -1.772  -9.492  1.00 25.94    -0.083 Cl
ENDBRANCH   8  29
TORSDOF 9
ENDMDL
MODEL 4
REMARK VINA RESULT:    -7.833      4.136     10.464
REMARK INTER + INTRA:         -12.491
REMARK INTER:                 -11.234
REMARK INTRA:                  -1.256
REMARK UNBOUND:                -0.537
REMARK  9 active torsions:
REMARK  status: ('A' for Active; 'I' for Inactive)
REMARK    1  A    between atoms: C02_2  and  N03_3 
REMARK    2  A    between atoms: N03_3  and  C04_4 
REMARK    3  A    between atoms: N03_3  and  C06_6 
REMARK    4  A    between atoms: C06_6  and  C07_7 
REMARK    5  A    between atoms: C07_7  and  O08_8 
REMARK    6  A    between atoms: O08_8  and  C09_9 
REMARK    7  A    between atoms: C12_12  and  N13_13 
REMARK    8  A    between atoms: N13_13  and  C14_14 
REMARK    9  A    between atoms: C21_21  and  C26_26 
ROOT
HETATM    1  C14   D T 601     -13.311  -0.322  -7.341  1.00 17.92     0.728 A 
HETATM    2  N15   D T 601     -13.959  -1.016  -8.297  1.00 19.07    -0.044 NA
HETATM    3  C16   D T 601     -14.574  -2.190  -8.096  1.00 18.16     0.163 A 
HETATM    4  C17   D T 601     -14.516  -2.743  -6.815  1.00 16.80     0.030 A 
HETATM    5  C18   D T 601     -13.810  -2.050  -5.829  1.00 18.08     0.151 A 
HETATM    6  N19   D T 601     -13.229  -0.867  -6.115  1.00 16.91    -0.074 NA
HETATM    7  C20   D T 601     -15.133  -3.985  -6.563  1.00 17.65     0.034 A 
HETATM    8  C21   D T 601     -15.820  -4.651  -7.591  1.00 18.53     0.047 A 
HETATM    9  C22   D T 601     -15.841  -4.044  -8.871  1.00 19.48     0.260 A 
HETATM   10  O23   D T 601     -16.436  -4.700  -9.752  1.00 21.52    -0.267 OA
HETATM   11  N24   D T 601     -15.236  -2.825  -9.115  1.00 19.49    -0.301 N 
HETATM   12  C25   D T 601     -15.269  -2.170 -10.413  1.00 20.07     0.161 C 
ENDROOT
BRANCH   1  13
HETATM   13  N13   D T 601     -12.739   0.855  -7.637  1.00 20.14    -0.188 N 
HETATM   14 1H13   D T 601     -12.948   1.184  -8.469  1.00 24.16     0.184 HD
BRANCH  13  15
HETATM   15  C12   D T 601     -11.891   1.653  -6.900  1.00 24.69     0.049 A 
HETATM   16  C11   D T 601     -12.493   2.507  -5.941  1.00 26.89     0.033 A 
HETATM   17  C10   D T 601     -11.699   3.345  -5.128  1.00 28.95     0.039 A 
HETATM   18  C09   D T 601     -10.293   3.321  -5.258  1.00 30.95     0.069 A 
HETATM   19  C35   D T 601      -9.695   2.454  -6.189  1.00 28.80     0.039 A 
HETATM   20  C34   D T 601     -10.491   1.642  -7.003  1.00 26.81     0.033 A 
BRANCH  18  21
HETATM   21  O08   D T 601      -9.506   4.079  -4.462  1.00 36.09    -0.350 OA
BRANCH  21  22
HETATM   22  C07   D T 601      -9.978   5.435  -4.235  1.00 42.63     0.195 C 
BRANCH  22  23
HETATM   23  C06   D T 601     -10.068   5.692  -2.699  1.00 46.85     0.143 C 
BRANCH  23  24
HETATM   24  N03   D T 601     -11.445   6.101  -2.225  1.00 51.06    -0.411 N 
BRANCH  24  25
HETATM   25  C02   D T 601     -11.973   7.521  -2.409  1.00 53.85     0.112 C 
HETATM   26  C01   D T 601     -12.565   7.932  -3.798  1.00 52.69     0.026 C 
ENDBRANCH  24  25
BRANCH  24  27
HETATM   27  C04   D T 601     -12.320   5.003  -1.679  1.00 47.80     0.112 C 
HETATM   28  C05   D T 601     -13.674   4.714  -2.385  1.00 44.89     0.026 C 
ENDBRANCH  24  27
ENDBRANCH  23  24
ENDBRANCH  22  23
ENDBRANCH  21  22
ENDBRANCH  18  21
ENDBRANCH  13  15
ENDBRANCH   1  13
BRANCH   8  29
HETATM   29  C26   D T 601     -16.471  -5.904  -7.355  1.00 21.63     0.023 A 
HETATM   30  C27   D T 601     -17.822  -5.938  -6.908  1.00 22.75     0.046 A 
HETATM   31 CL28   D T 601     -18.654  -4.501  -6.603  1.00 22.59    -0.083 Cl
HETATM   32  C29   D T 601     -18.499  -7.162  -6.668  1.00 24.08     0.025 A 
HETATM   33  C30   D T 601     -17.838  -8.385  -6.919  1.00 25.63     0.003 A 
HETATM   34  C31   D T 601     -16.516  -8.372  -7.382  1.00 25.41     0.025 A 
HETATM   35  C32   D T 601     -15.838  -7.145  -7.597  1.00 23.77     0.046 A 
HETATM   36 CL33   D T 601     -14.239  -7.197  -8.149  1.00 25.94    -0.083 Cl
ENDBRANCH   8  29
TORSDOF 9
ENDMDL
MODEL 5
REMARK VINA RESULT:    -7.756      3.850      4.873
REMARK INTER + INTRA:         -12.373
REMARK INTER:                 -11.257
REMARK INTRA:                  -1.116
REMARK UNBOUND:                -0.537
REMARK  9 active torsions:
REMARK  status: ('A' for Active; 'I' for Inactive)
REMARK    1  A    between atoms: C02_2  and  N03_3 
REMARK    2  A    between atoms: N03_3  and  C04_4 
REMARK    3  A    between atoms: N03_3  and  C06_6 
REMARK    4  A    between atoms: C06_6  and  C07_7 
REMARK    5  A    between atoms: C07_7  and  O08_8 
REMARK    6  A    between atoms: O08_8  and  C09_9 
REMARK    7  A    between atoms: C12_12  and  N13_13 
REMARK    8  A    between atoms: N13_13  and  C14_14 
REMARK    9  A    between atoms: C21_21  and  C26_26 
ROOT
HETATM    1  C14   D T 601     -14.370   2.690  -4.115  1.00 17.92     0.728 A 
HETATM    2  N15   D T 601     -15.716   2.765  -4.125  1.00 19.07    -0.044 NA
HETATM    3  C16   D T 601     -16.489   2.643  -3.037  1.00 18.16     0.163 A 
HETATM    4  C17   D T 601     -15.859   2.394  -1.816  1.00 16.80     0.030 A 
HETATM    5  C18   D T 601     -14.468   2.272  -1.806  1.00 18.08     0.151 A 
HETATM    6  N19   D T 601     -13.764   2.421  -2.946  1.00 16.91    -0.074 NA
HETATM    7  C20   D T 601     -16.634   2.239  -0.649  1.00 17.65     0.034 A 
HETATM    8  C21   D T 601     -18.032   2.357  -0.713  1.00 18.53     0.047 A 
HETATM    9  C22   D T 601     -18.616   2.605  -1.980  1.00 19.48     0.260 A 
HETATM   10  O23   D T 601     -19.864   2.665  -1.979  1.00 21.52    -0.267 OA
HETATM   11  N24   D T 601     -17.853   2.758  -3.122  1.00 19.49    -0.301 N 
HETATM   12  C25   D T 601     -18.428   3.041  -4.428  1.00 20.07     0.161 C 
ENDROOT
BRANCH   1  13
HETATM   13  N13   D T 601     -13.682   2.843  -5.257  1.00 20.14    -0.188 N 
HETATM   14 1H13   D T 601     -13.570   3.714  -5.524  1.00 24.16     0.184 HD
BRANCH  13  15
HETATM   15  C12   D T 601     -13.115   1.907  -6.096  1.00 24.69     0.049 A 
HETATM   16  C11   D T 601     -13.960   0.859  -6.545  1.00 26.89     0.033 A 
HETATM   17  C10   D T 601     -13.468  -0.132  -7.422  1.00 28.95     0.039 A 
HETATM   18  C09   D T 601     -12.131  -0.072  -7.870  1.00 30.95     0.069 A 
HETATM   19  C35   D T 601     -11.301   0.983  -7.447  1.00 28.80     0.039 A 
HETATM   20  C34   D T 601     -11.792   1.949  -6.564  1.00 26.81     0.033 A 
BRANCH  18  21
HETATM   21  O08   D T 601     -11.646  -0.981  -8.745  1.00 36.09    -0.350 OA
BRANCH  21  22
HETATM   22  C07   D T 601     -12.628  -1.911  -9.278  1.00 42.63     0.195 C 
BRANCH  22  23
HETATM   23  C06   D T 601     -12.537  -3.255  -8.491  1.00 46.85     0.143 C 
BRANCH  23  24
HETATM   24  N03   D T 601     -13.840  -4.021  -8.432  1.00 51.06    -0.411 N 
BRANCH  24  25
HETATM   25  C02   D T 601     -14.560  -4.288  -7.113  1.00 53.85     0.112 C 
HETATM   26  C01   D T 601     -14.141  -3.473  -5.845  1.00 52.69     0.026 C 
ENDBRANCH  24  25
BRANCH  24  27
HETATM   27  C04   D T 601     -14.458  -4.394  -9.753  1.00 47.80     0.112 C 
HETATM   28  C05   D T 601     -16.001  -4.559  -9.829  1.00 44.89     0.026 C 
ENDBRANCH  24  27
ENDBRANCH  23  24
ENDBRANCH  22  23
ENDBRANCH  21  22
ENDBRANCH  18  21
ENDBRANCH  13  15
ENDBRANCH   1  13
BRANCH   8  29
HETATM   29  C26   D T 601     -18.840   2.223   0.461  1.00 21.63     0.023 A 
HETATM   30  C27   D T 601     -19.465   0.981   0.766  1.00 22.75     0.046 A 
HETATM   31 CL28   D T 601     -19.304  -0.333  -0.283  1.00 22.59    -0.083 Cl
HETATM   32  C29   D T 601     -20.268   0.813   1.923  1.00 24.08     0.025 A 
HETATM   33  C30   D T 601     -20.421   1.887   2.829  1.00 25.63     0.003 A 
HETATM   34  C31   D T 601     -19.794   3.110   2.558  1.00 25.41     0.025 A 
HETATM   35  C32   D T 601     -19.012   3.279   1.387  1.00 23.77     0.046 A 
HETATM   36 CL33   D T 601     -18.287   4.783   1.114  1.00 25.94    -0.083 Cl
ENDBRANCH   8  29
TORSDOF 9
ENDMDL
MODEL 6
REMARK VINA RESULT:    -7.511      3.309      4.071
REMARK INTER + INTRA:         -12.000
REMARK INTER:                 -10.434
REMARK INTRA:                  -1.565
REMARK UNBOUND:                -0.537
REMARK  9 active torsions:
REMARK  status: ('A' for Active; 'I' for Inactive)
REMARK    1  A    between atoms: C02_2  and  N03_3 
REMARK    2  A    between atoms: N03_3  and  C04_4 
REMARK    3  A    between atoms: N03_3  and  C06_6 
REMARK    4  A    between atoms: C06_6  and  C07_7 
REMARK    5  A    between atoms: C07_7  and  O08_8 
REMARK    6  A    between atoms: O08_8  and  C09_9 
REMARK    7  A    between atoms: C12_12  and  N13_13 
REMARK    8  A    between atoms: N13_13  and  C14_14 
REMARK    9  A    between atoms: C21_21  and  C26_26 
ROOT
HETATM    1  C14   D T 601     -14.310   1.288  -5.127  1.00 17.92     0.728 A 
HETATM    2  N15   D T 601     -15.514   1.854  -4.903  1.00 19.07    -0.044 NA
HETATM    3  C16   D T 601     -15.937   2.284  -3.708  1.00 18.16     0.163 A 
HETATM    4  C17   D T 601     -15.086   2.111  -2.614  1.00 16.80     0.030 A 
HETATM    5  C18   D T 601     -13.856   1.487  -2.830  1.00 18.08     0.151 A 
HETATM    6  N19   D T 601     -13.502   1.093  -4.070  1.00 16.91    -0.074 NA
HETATM    7  C20   D T 601     -15.499   2.532  -1.334  1.00 17.65     0.034 A 
HETATM    8  C21   D T 601     -16.753   3.142  -1.166  1.00 18.53     0.047 A 
HETATM    9  C22   D T 601     -17.576   3.288  -2.310  1.00 19.48     0.260 A 
HETATM   10  O23   D T 601     -18.692   3.805  -2.090  1.00 21.52    -0.267 OA
HETATM   11  N24   D T 601     -17.168   2.875  -3.564  1.00 19.49    -0.301 N 
HETATM   12  C25   D T 601     -17.983   3.038  -4.757  1.00 20.07     0.161 C 
ENDROOT
BRANCH   1  13
HETATM   13  N13   D T 601     -13.969   0.903  -6.366  1.00 20.14    -0.188 N 
HETATM   14 1H13   D T 601     -13.955   1.579  -6.987  1.00 24.16     0.184 HD
BRANCH  13  15
HETATM   15  C12   D T 601     -13.638  -0.340  -6.861  1.00 24.69     0.049 A 
HETATM   16  C11   D T 601     -13.114  -0.381  -8.180  1.00 26.89     0.033 A 
HETATM   17  C10   D T 601     -12.729  -1.609  -8.760  1.00 28.95     0.039 A 
HETATM   18  C09   D T 601     -12.850  -2.804  -8.019  1.00 30.95     0.069 A 
HETATM   19  C35   D T 601     -13.344  -2.760  -6.702  1.00 28.80     0.039 A 
HETATM   20  C34   D T 601     -13.739  -1.541  -6.143  1.00 26.81     0.033 A 
BRANCH  18  21
HETATM   21  O08   D T 601     -12.449  -3.988  -8.532  1.00 36.09    -0.350 OA
BRANCH  21  22
HETATM   22  C07   D T 601     -13.393  -4.622  -9.438  1.00 42.63     0.195 C 
BRANCH  22  23
HETATM   23  C06   D T 601     -14.265  -5.637  -8.635  1.00 46.85     0.143 C 
BRANCH  23  24
HETATM   24  N03   D T 601     -15.622  -5.098  -8.239  1.00 51.06    -0.411 N 
BRANCH  24  25
HETATM   25  C02   D T 601     -16.386  -4.111  -9.115  1.00 53.85     0.112 C 
HETATM   26  C01   D T 601     -16.538  -2.631  -8.630  1.00 52.69     0.026 C 
ENDBRANCH  24  25
BRANCH  24  27
HETATM   27  C04   D T 601     -16.240  -5.686  -6.997  1.00 47.80     0.112 C 
HETATM   28  C05   D T 601     -16.153  -4.880  -5.672  1.00 44.89     0.026 C 
ENDBRANCH  24  27
ENDBRANCH  23  24
ENDBRANCH  22  23
ENDBRANCH  21  22
ENDBRANCH  18  21
ENDBRANCH  13  15
ENDBRANCH   1  13
BRANCH   8  29
HETATM   29  C26   D T 601     -17.187   3.596   0.121  1.00 21.63     0.023 A 
HETATM   30  C27   D T 601     -18.049   2.788   0.915  1.00 22.75     0.046 A 
HETATM   31 CL28   D T 601     -18.612   1.309   0.325  1.00 22.59    -0.083 Cl
HETATM   32  C29   D T 601     -18.495   3.206   2.195  1.00 24.08     0.025 A 
HETATM   33  C30   D T 601     -18.040   4.433   2.727  1.00 25.63     0.003 A 
HETATM   34  C31   D T 601     -17.172   5.232   1.970  1.00 25.41     0.025 A 
HETATM   35  C32   D T 601     -16.749   4.819   0.681  1.00 23.77     0.046 A 
HETATM   36 CL33   D T 601     -15.707   5.832  -0.185  1.00 25.94    -0.083 Cl
ENDBRANCH   8  29
TORSDOF 9
ENDMDL
MODEL 7
REMARK VINA RESULT:    -7.493      4.536     10.532
REMARK INTER + INTRA:         -11.973
REMARK INTER:                 -10.427
REMARK INTRA:                  -1.546
REMARK UNBOUND:                -0.537
REMARK  9 active torsions:
REMARK  status: ('A' for Active; 'I' for Inactive)
REMARK    1  A    between atoms: C02_2  and  N03_3 
REMARK    2  A    between atoms: N03_3  and  C04_4 
REMARK    3  A    between atoms: N03_3  and  C06_6 
REMARK    4  A    between atoms: C06_6  and  C07_7 
REMARK    5  A    between atoms: C07_7  and  O08_8 
REMARK    6  A    between atoms: O08_8  and  C09_9 
REMARK    7  A    between atoms: C12_12  and  N13_13 
REMARK    8  A    between atoms: N13_13  and  C14_14 
REMARK    9  A    between atoms: C21_21  and  C26_26 
ROOT
HETATM    1  C14   D T 601     -13.844   0.286  -4.964  1.00 17.92     0.728 A 
HETATM    2  N15   D T 601     -14.558  -0.795  -5.337  1.00 19.07    -0.044 NA
HETATM    3  C16   D T 601     -14.566  -1.306  -6.575  1.00 18.16     0.163 A 
HETATM    4  C17   D T 601     -13.807  -0.658  -7.552  1.00 16.80     0.030 A 
HETATM    5  C18   D T 601     -13.099   0.488  -7.183  1.00 18.08     0.151 A 
HETATM    6  N19   D T 601     -13.136   0.928  -5.909  1.00 16.91    -0.074 NA
HETATM    7  C20   D T 601     -13.802  -1.150  -8.873  1.00 17.65     0.034 A 
HETATM    8  C21   D T 601     -14.543  -2.299  -9.198  1.00 18.53     0.047 A 
HETATM    9  C22   D T 601     -15.298  -2.911  -8.168  1.00 19.48     0.260 A 
HETATM   10  O23   D T 601     -15.962  -3.906  -8.526  1.00 21.52    -0.267 OA
HETATM   11  N24   D T 601     -15.300  -2.427  -6.873  1.00 19.49    -0.301 N 
HETATM   12  C25   D T 601     -16.045  -3.054  -5.793  1.00 20.07     0.161 C 
ENDROOT
BRANCH   1  13
HETATM   13  N13   D T 601     -13.887   0.712  -3.692  1.00 20.14    -0.188 N 
HETATM   14 1H13   D T 601     -13.410   0.199  -3.099  1.00 24.16     0.184 HD
BRANCH  13  15
HETATM   15  C12   D T 601     -14.530   1.793  -3.128  1.00 24.69     0.049 A 
HETATM   16  C11   D T 601     -15.530   2.421  -3.916  1.00 26.89     0.033 A 
HETATM   17  C10   D T 601     -16.253   3.524  -3.410  1.00 28.95     0.039 A 
HETATM   18  C09   D T 601     -15.992   3.996  -2.106  1.00 30.95     0.069 A 
HETATM   19  C35   D T 601     -15.021   3.356  -1.315  1.00 28.80     0.039 A 
HETATM   20  C34   D T 601     -14.297   2.276  -1.831  1.00 26.81     0.033 A 
BRANCH  18  21
HETATM   21  O08   D T 601     -16.699   5.020  -1.580  1.00 36.09    -0.350 OA
BRANCH  21  22
HETATM   22  C07   D T 601     -17.127   4.834  -0.203  1.00 42.63     0.195 C 
BRANCH  22  23
HETATM   23  C06   D T 601     -18.511   4.113  -0.194  1.00 46.85     0.143 C 
BRANCH  23  24
HETATM   24  N03   D T 601     -18.522   2.818   0.588  1.00 51.06    -0.411 N 
BRANCH  24  25
HETATM   25  C02   D T 601     -19.022   2.749   2.028  1.00 53.85     0.112 C 
HETATM   26  C01   D T 601     -18.159   3.398   3.159  1.00 52.69     0.026 C 
ENDBRANCH  24  25
BRANCH  24  27
HETATM   27  C04   D T 601     -18.137   1.575  -0.170  1.00 47.80     0.112 C 
HETATM   28  C05   D T 601     -18.735   1.354  -1.587  1.00 44.89     0.026 C 
ENDBRANCH  24  27
ENDBRANCH  23  24
ENDBRANCH  22  23
ENDBRANCH  21  22
ENDBRANCH  18  21
ENDBRANCH  13  15
ENDBRANCH   1  13
BRANCH   8  29
HETATM   29  C26   D T 601     -14.538  -2.828 -10.528  1.00 21.63     0.023 A 
HETATM   30  C27   D T 601     -13.521  -3.737 -10.936  1.00 22.75     0.046 A 
HETATM   31 CL28   D T 601     -12.279  -4.158  -9.872  1.00 22.59    -0.083 Cl
HETATM   32  C29   D T 601     -13.488  -4.283 -12.245  1.00 24.08     0.025 A 
HETATM   33  C30   D T 601     -14.514  -3.961 -13.161  1.00 25.63     0.003 A 
HETATM   34  C31   D T 601     -15.538  -3.087 -12.770  1.00 25.41     0.025 A 
HETATM   35  C32   D T 601     -15.550  -2.525 -11.468  1.00 23.77     0.046 A 
HETATM   36 CL33   D T 601     -16.809  -1.471 -11.060  1.00 25.94    -0.083 Cl
ENDBRANCH   8  29
TORSDOF 9
ENDMDL
MODEL 8
REMARK VINA RESULT:    -7.464      3.698      9.704
REMARK INTER + INTRA:         -11.927
REMARK INTER:                 -11.326
REMARK INTRA:                  -0.602
REMARK UNBOUND:                -0.537
REMARK  9 active torsions:
REMARK  status: ('A' for Active; 'I' for Inactive)
REMARK    1  A    between atoms: C02_2  and  N03_3 
REMARK    2  A    between atoms: N03_3  and  C04_4 
REMARK    3  A    between atoms: N03_3  and  C06_6 
REMARK    4  A    between atoms: C06_6  and  C07_7 
REMARK    5  A    between atoms: C07_7  and  O08_8 
REMARK    6  A    between atoms: O08_8  and  C09_9 
REMARK    7  A    between atoms: C12_12  and  N13_13 
REMARK    8  A    between atoms: N13_13  and  C14_14 
REMARK    9  A    between atoms: C21_21  and  C26_26 
ROOT
HETATM    1  C14   D T 601     -11.056   1.040  -7.193  1.00 17.92     0.728 A 
HETATM    2  N15   D T 601     -12.339   0.803  -6.851  1.00 19.07    -0.044 NA
HETATM    3  C16   D T 601     -13.093  -0.174  -7.374  1.00 18.16     0.163 A 
HETATM    4  C17   D T 601     -12.521  -0.983  -8.357  1.00 16.80     0.030 A 
HETATM    5  C18   D T 601     -11.207  -0.716  -8.747  1.00 18.08     0.151 A 
HETATM    6  N19   D T 601     -10.514   0.281  -8.160  1.00 16.91    -0.074 NA
HETATM    7  C20   D T 601     -13.285  -2.010  -8.948  1.00 17.65     0.034 A 
HETATM    8  C21   D T 601     -14.608  -2.230  -8.532  1.00 18.53     0.047 A 
HETATM    9  C22   D T 601     -15.137  -1.375  -7.534  1.00 19.48     0.260 A 
HETATM   10  O23   D T 601     -16.328  -1.598  -7.231  1.00 21.52    -0.267 OA
HETATM   11  N24   D T 601     -14.385  -0.369  -6.955  1.00 19.49    -0.301 N 
HETATM   12  C25   D T 601     -14.898   0.502  -5.910  1.00 20.07     0.161 C 
ENDROOT
BRANCH   1  13
HETATM   13  N13   D T 601     -10.377   2.033  -6.600  1.00 20.14    -0.188 N 
HETATM   14 1H13   D T 601      -9.513   2.135  -6.893  1.00 24.16     0.184 HD
BRANCH  13  15
HETATM   15  C12   D T 601     -10.761   2.926  -5.622  1.00 24.69     0.049 A 
HETATM   16  C11   D T 601      -9.761   3.806  -5.134  1.00 26.89     0.033 A 
HETATM   17  C10   D T 601     -10.071   4.765  -4.146  1.00 28.95     0.039 A 
HETATM   18  C09   D T 601     -11.389   4.863  -3.651  1.00 30.95     0.069 A 
HETATM   19  C35   D T 601     -12.387   4.010  -4.155  1.00 28.80     0.039 A 
HETATM   20  C34   D T 601     -12.066   3.050  -5.121  1.00 26.81     0.033 A 
BRANCH  18  21
HETATM   21  O08   D T 601     -11.724   5.801  -2.739  1.00 36.09    -0.350 OA
BRANCH  21  22
HETATM   22  C07   D T 601     -12.362   5.293  -1.534  1.00 42.63     0.195 C 
BRANCH  22  23
HETATM   23  C06   D T 601     -13.741   6.001  -1.351  1.00 46.85     0.143 C 
BRANCH  23  24
HETATM   24  N03   D T 601     -14.800   5.125  -0.721  1.00 51.06    -0.411 N 
BRANCH  24  25
HETATM   25  C02   D T 601     -14.643   3.610  -0.626  1.00 53.85     0.112 C 
HETATM   26  C01   D T 601     -15.922   2.728  -0.439  1.00 52.69     0.026 C 
ENDBRANCH  24  25
BRANCH  24  27
HETATM   27  C04   D T 601     -15.961   5.835  -0.075  1.00 47.80     0.112 C 
HETATM   28  C05   D T 601     -15.676   6.781   1.123  1.00 44.89     0.026 C 
ENDBRANCH  24  27
ENDBRANCH  23  24
ENDBRANCH  22  23
ENDBRANCH  21  22
ENDBRANCH  18  21
ENDBRANCH  13  15
ENDBRANCH   1  13
BRANCH   8  29
HETATM   29  C26   D T 601     -15.397  -3.280  -9.102  1.00 21.63     0.023 A 
HETATM   30  C27   D T 601     -15.494  -4.541  -8.450  1.00 22.75     0.046 A 
HETATM   31 CL28   D T 601     -14.638  -4.830  -7.024  1.00 22.59    -0.083 Cl
HETATM   32  C29   D T 601     -16.270  -5.601  -8.986  1.00 24.08     0.025 A 
HETATM   33  C30   D T 601     -17.008  -5.395 -10.173  1.00 25.63     0.003 A 
HETATM   34  C31   D T 601     -16.944  -4.152 -10.817  1.00 25.41     0.025 A 
HETATM   35  C32   D T 601     -16.147  -3.105 -10.289  1.00 23.77     0.046 A 
HETATM   36 CL33   D T 601     -16.106  -1.631 -11.117  1.00 25.94    -0.083 Cl
ENDBRANCH   8  29
TORSDOF 9
ENDMDL
MODEL 9
REMARK VINA RESULT:    -7.430      3.543      5.223
REMARK INTER + INTRA:         -11.877
REMARK INTER:                 -10.835
REMARK INTRA:                  -1.042
REMARK UNBOUND:                -0.537
REMARK  9 active torsions:
REMARK  status: ('A' for Active; 'I' for Inactive)
REMARK    1  A    between atoms: C02_2  and  N03_3 
REMARK    2  A    between atoms: N03_3  and  C04_4 
REMARK    3  A    between atoms: N03_3  and  C06_6 
REMARK    4  A    between atoms: C06_6  and  C07_7 
REMARK    5  A    between atoms: C07_7  and  O08_8 
REMARK    6  A    between atoms: O08_8  and  C09_9 
REMARK    7  A    between atoms: C12_12  and  N13_13 
REMARK    8  A    between atoms: N13_13  and  C14_14 
REMARK    9  A    between atoms: C21_21  and  C26_26 
ROOT
HETATM    1  C14   D T 601     -14.418   1.424  -5.348  1.00 17.92     0.728 A 
HETATM    2  N15   D T 601     -15.627   1.950  -5.066  1.00 19.07    -0.044 NA
HETATM    3  C16   D T 601     -16.028   2.311  -3.839  1.00 18.16     0.163 A 
HETATM    4  C17   D T 601     -15.144   2.102  -2.778  1.00 16.80     0.030 A 
HETATM    5  C18   D T 601     -13.907   1.518  -3.057  1.00 18.08     0.151 A 
HETATM    6  N19   D T 601     -13.578   1.195  -4.324  1.00 16.91    -0.074 NA
HETATM    7  C20   D T 601     -15.532   2.449  -1.468  1.00 17.65     0.034 A 
HETATM    8  C21   D T 601     -16.793   3.022  -1.236  1.00 18.53     0.047 A 
HETATM    9  C22   D T 601     -17.649   3.205  -2.350  1.00 19.48     0.260 A 
HETATM   10  O23   D T 601     -18.769   3.685  -2.076  1.00 21.52    -0.267 OA
HETATM   11  N24   D T 601     -17.266   2.865  -3.634  1.00 19.49    -0.301 N 
HETATM   12  C25   D T 601     -18.116   3.071  -4.796  1.00 20.07     0.161 C 
ENDROOT
BRANCH   1  13
HETATM   13  N13   D T 601     -14.103   1.110  -6.614  1.00 20.14    -0.188 N 
HETATM   14 1H13   D T 601     -14.144   1.811  -7.204  1.00 24.16     0.184 HD
BRANCH  13  15
HETATM   15  C12   D T 601     -13.727  -0.092  -7.174  1.00 24.69     0.049 A 
HETATM   16  C11   D T 601     -12.509  -0.103  -7.902  1.00 26.89     0.033 A 
HETATM   17  C10   D T 601     -12.038  -1.295  -8.494  1.00 28.95     0.039 A 
HETATM   18  C09   D T 601     -12.774  -2.491  -8.346  1.00 30.95     0.069 A 
HETATM   19  C35   D T 601     -13.967  -2.486  -7.601  1.00 28.80     0.039 A 
HETATM   20  C34   D T 601     -14.435  -1.296  -7.035  1.00 26.81     0.033 A 
BRANCH  18  21
HETATM   21  O08   D T 601     -12.325  -3.655  -8.863  1.00 36.09    -0.350 OA
BRANCH  21  22
HETATM   22  C07   D T 601     -13.263  -4.351  -9.730  1.00 42.63     0.195 C 
BRANCH  22  23
HETATM   23  C06   D T 601     -13.085  -3.834 -11.191  1.00 46.85     0.143 C 
BRANCH  23  24
HETATM   24  N03   D T 601     -11.907  -4.444 -11.918  1.00 51.06    -0.411 N 
BRANCH  24  25
HETATM   25  C02   D T 601     -11.929  -5.883 -12.425  1.00 53.85     0.112 C 
HETATM   26  C01   D T 601     -13.185  -6.387 -13.210  1.00 52.69     0.026 C 
ENDBRANCH  24  25
BRANCH  24  27
HETATM   27  C04   D T 601     -10.760  -3.519 -12.230  1.00 47.80     0.112 C 
HETATM   28  C05   D T 601     -10.790  -2.724 -13.564  1.00 44.89     0.026 C 
ENDBRANCH  24  27
ENDBRANCH  23  24
ENDBRANCH  22  23
ENDBRANCH  21  22
ENDBRANCH  18  21
ENDBRANCH  13  15
ENDBRANCH   1  13
BRANCH   8  29
HETATM   29  C26   D T 601     -17.202   3.400   0.082  1.00 21.63     0.023 A 
HETATM   30  C27   D T 601     -16.753   4.626   0.649  1.00 22.75     0.046 A 
HETATM   31 CL28   D T 601     -15.691   5.622  -0.208  1.00 22.59    -0.083 Cl
HETATM   32  C29   D T 601     -17.141   5.034   1.951  1.00 24.08     0.025 A 
HETATM   33  C30   D T 601     -18.035   4.232   2.696  1.00 25.63     0.003 A 
HETATM   34  C31   D T 601     -18.507   3.033   2.145  1.00 25.41     0.025 A 
HETATM   35  C32   D T 601     -18.095   2.620   0.853  1.00 23.77     0.046 A 
HETATM   36 CL33   D T 601     -18.695   1.158   0.248  1.00 25.94    -0.083 Cl
ENDBRANCH   8  29
TORSDOF 9
ENDMDL
