MODEL 1
REMARK VINA RESULT:    -9.013      0.000      0.000
REMARK INTER + INTRA:         -15.053
REMARK INTER:                 -13.756
REMARK INTRA:                  -1.297
REMARK UNBOUND:                -1.297
REMARK  9 active torsions:
REMARK  status: ('A' for Active; 'I' for Inactive)
REMARK    1  A    between atoms: C02_2  and  N03_3 
REMARK    2  A    between atoms: N03_3  and  C04_4 
REMARK    3  A    between atoms: N03_3  and  C06_6 
REMARK    4  A    between atoms: C06_6  and  C07_7 
REMARK    5  A    between atoms: C07_7  and  O08_8 
REMARK    6  A    between atoms: O08_8  and  C09_9 
REMARK    7  A    between atoms: C12_12  and  N13_13 
REMARK    8  A    between atoms: N13_13  and  C14_14 
REMARK    9  A    between atoms: C21_21  and  C26_26 
ROOT
HETATM    1  C14   D T 601       0.030   3.521  -9.684  1.00 17.92     0.728 A 
HETATM    2  N15   D T 601      -0.114   2.336  -9.057  1.00 19.07    -0.044 NA
HETATM    3  C16   D T 601      -0.524   1.209  -9.654  1.00 18.16     0.163 A 
HETATM    4  C17   D T 601      -0.850   1.271 -11.010  1.00 16.80     0.030 A 
HETATM    5  C18   D T 601      -0.745   2.504 -11.656  1.00 18.08     0.151 A 
HETATM    6  N19   D T 601      -0.311   3.590 -10.983  1.00 16.91    -0.074 NA
HETATM    7  C20   D T 601      -1.305   0.113 -11.672  1.00 17.65     0.034 A 
HETATM    8  C21   D T 601      -1.408  -1.102 -10.975  1.00 18.53     0.047 A 
HETATM    9  C22   D T 601      -1.067  -1.104  -9.600  1.00 19.48     0.260 A 
HETATM   10  O23   D T 601      -1.213  -2.204  -9.026  1.00 21.52    -0.267 OA
HETATM   11  N24   D T 601      -0.621   0.032  -8.953  1.00 19.49    -0.301 N 
HETATM   12  C25   D T 601      -0.239   0.048  -7.549  1.00 20.07     0.161 C 
ENDROOT
BRANCH   1  13
HETATM   13  N13   D T 601       0.465   4.592  -9.003  1.00 20.14    -0.188 N 
HETATM   14 1H13   D T 601      -0.190   5.056  -8.559  1.00 24.16     0.184 HD
BRANCH  13  15
HETATM   15  C12   D T 601       1.734   5.110  -8.861  1.00 24.69     0.049 A 
HETATM   16  C11   D T 601       1.952   5.966  -7.749  1.00 26.89     0.033 A 
HETATM   17  C10   D T 601       3.226   6.526  -7.515  1.00 28.95     0.039 A 
HETATM   18  C09   D T 601       4.299   6.218  -8.381  1.00 30.95     0.069 A 
HETATM   19  C35   D T 601       4.090   5.347  -9.465  1.00 28.80     0.039 A 
HETATM   20  C34   D T 601       2.819   4.812  -9.700  1.00 26.81     0.033 A 
BRANCH  18  21
HETATM   21  O08   D T 601       5.540   6.704  -8.155  1.00 36.09    -0.350 OA
BRANCH  21  22
HETATM   22  C07   D T 601       6.023   7.652  -9.146  1.00 42.63     0.195 C 
BRANCH  22  23
HETATM   23  C06   D T 601       7.529   7.361  -9.435  1.00 46.85     0.143 C 
BRANCH  23  24
HETATM   24  N03   D T 601       7.763   6.472 -10.636  1.00 51.06    -0.411 N 
BRANCH  24  25
HETATM   25  C02   D T 601       7.419   4.985 -10.617  1.00 53.85     0.112 C 
HETATM   26  C01   D T 601       7.625   4.179  -9.292  1.00 52.69     0.026 C 
ENDBRANCH  24  25
BRANCH  24  27
HETATM   27  C04   D T 601       8.230   7.154 -11.894  1.00 47.80     0.112 C 
HETATM   28  C05   D T 601       7.319   8.238 -12.532  1.00 44.89     0.026 C 
ENDBRANCH  24  27
ENDBRANCH  23  24
ENDBRANCH  22  23
ENDBRANCH  21  22
ENDBRANCH  18  21
ENDBRANCH  13  15
ENDBRANCH   1  13
BRANCH   8  29
HETATM   29  C26   D T 601      -1.848  -2.296 -11.632  1.00 21.63     0.023 A 
HETATM   30  C27   D T 601      -3.237  -2.548 -11.808  1.00 22.75     0.046 A 
HETATM   31 CL28   D T 601      -4.382  -1.468 -11.195  1.00 22.59    -0.083 Cl
HETATM   32  C29   D T 601      -3.708  -3.718 -12.456  1.00 24.08     0.025 A 
HETATM   33  C30   D T 601      -2.780  -4.642 -12.990  1.00 25.63     0.003 A 
HETATM   34  C31   D T 601      -1.407  -4.398 -12.847  1.00 25.41     0.025 A 
HETATM   35  C32   D T 601      -0.945  -3.238 -12.176  1.00 23.77     0.046 A 
HETATM   36 CL33   D T 601       0.725  -3.005 -12.032  1.00 25.94    -0.083 Cl
ENDBRANCH   8  29
TORSDOF 9
ENDMDL
MODEL 2
REMARK VINA RESULT:    -8.942      0.480      2.267
REMARK INTER + INTRA:         -14.944
REMARK INTER:                 -13.707
REMARK INTRA:                  -1.237
REMARK UNBOUND:                -1.297
REMARK  9 active torsions:
REMARK  status: ('A' for Active; 'I' for Inactive)
REMARK    1  A    between atoms: C02_2  and  N03_3 
REMARK    2  A    between atoms: N03_3  and  C04_4 
REMARK    3  A    between atoms: N03_3  and  C06_6 
REMARK    4  A    between atoms: C06_6  and  C07_7 
REMARK    5  A    between atoms: C07_7  and  O08_8 
REMARK    6  A    between atoms: O08_8  and  C09_9 
REMARK    7  A    between atoms: C12_12  and  N13_13 
REMARK    8  A    between atoms: N13_13  and  C14_14 
REMARK    9  A    between atoms: C21_21  and  C26_26 
ROOT
HETATM    1  C14   D T 601      -0.012   3.432 -10.158  1.00 17.92     0.728 A 
HETATM    2  N15   D T 601      -0.156   2.329  -9.396  1.00 19.07    -0.044 NA
HETATM    3  C16   D T 601      -0.478   1.118  -9.871  1.00 18.16     0.163 A 
HETATM    4  C17   D T 601      -0.706   0.995 -11.243  1.00 16.80     0.030 A 
HETATM    5  C18   D T 601      -0.601   2.142 -12.033  1.00 18.08     0.151 A 
HETATM    6  N19   D T 601      -0.259   3.322 -11.476  1.00 16.91    -0.074 NA
HETATM    7  C20   D T 601      -1.066  -0.256 -11.782  1.00 17.65     0.034 A 
HETATM    8  C21   D T 601      -1.173  -1.379 -10.944  1.00 18.53     0.047 A 
HETATM    9  C22   D T 601      -0.934  -1.194  -9.560  1.00 19.48     0.260 A 
HETATM   10  O23   D T 601      -1.079  -2.219  -8.862  1.00 21.52    -0.267 OA
HETATM   11  N24   D T 601      -0.581   0.035  -9.034  1.00 19.49    -0.301 N 
HETATM   12  C25   D T 601      -0.304   0.243  -7.621  1.00 20.07     0.161 C 
ENDROOT
BRANCH   1  13
HETATM   13  N13   D T 601       0.330   4.599  -9.591  1.00 20.14    -0.188 N 
HETATM   14 1H13   D T 601      -0.365   5.186  -9.472  1.00 24.16     0.184 HD
BRANCH  13  15
HETATM   15  C12   D T 601       1.554   5.062  -9.160  1.00 24.69     0.049 A 
HETATM   16  C11   D T 601       2.674   4.763  -9.980  1.00 26.89     0.033 A 
HETATM   17  C10   D T 601       3.963   5.214  -9.625  1.00 28.95     0.039 A 
HETATM   18  C09   D T 601       4.140   5.984  -8.454  1.00 30.95     0.069 A 
HETATM   19  C35   D T 601       3.027   6.305  -7.657  1.00 28.80     0.039 A 
HETATM   20  C34   D T 601       1.756   5.837  -8.008  1.00 26.81     0.033 A 
BRANCH  18  21
HETATM   21  O08   D T 601       5.355   6.468  -8.113  1.00 36.09    -0.350 OA
BRANCH  21  22
HETATM   22  C07   D T 601       5.897   7.473  -9.012  1.00 42.63     0.195 C 
BRANCH  22  23
HETATM   23  C06   D T 601       7.404   7.161  -9.274  1.00 46.85     0.143 C 
BRANCH  23  24
HETATM   24  N03   D T 601       7.670   6.489 -10.602  1.00 51.06    -0.411 N 
BRANCH  24  25
HETATM   25  C02   D T 601       8.193   7.266 -11.808  1.00 53.85     0.112 C 
HETATM   26  C01   D T 601       7.208   8.193 -12.593  1.00 52.69     0.026 C 
ENDBRANCH  24  25
BRANCH  24  27
HETATM   27  C04   D T 601       7.518   4.992 -10.639  1.00 47.80     0.112 C 
HETATM   28  C05   D T 601       7.658   4.199  -9.310  1.00 44.89     0.026 C 
ENDBRANCH  24  27
ENDBRANCH  23  24
ENDBRANCH  22  23
ENDBRANCH  21  22
ENDBRANCH  18  21
ENDBRANCH  13  15
ENDBRANCH   1  13
BRANCH   8  29
HETATM   29  C26   D T 601      -1.517  -2.664 -11.471  1.00 21.63     0.023 A 
HETATM   30  C27   D T 601      -0.512  -3.650 -11.673  1.00 22.75     0.046 A 
HETATM   31 CL28   D T 601       1.106  -3.296 -11.345  1.00 22.59    -0.083 Cl
HETATM   32  C29   D T 601      -0.818  -4.935 -12.191  1.00 24.08     0.025 A 
HETATM   33  C30   D T 601      -2.162  -5.273 -12.471  1.00 25.63     0.003 A 
HETATM   34  C31   D T 601      -3.169  -4.322 -12.255  1.00 25.41     0.025 A 
HETATM   35  C32   D T 601      -2.852  -3.032 -11.761  1.00 23.77     0.046 A 
HETATM   36 CL33   D T 601      -4.113  -1.928 -11.528  1.00 25.94    -0.083 Cl
ENDBRANCH   8  29
TORSDOF 9
ENDMDL
MODEL 3
REMARK VINA RESULT:    -8.460      1.134      2.048
REMARK INTER + INTRA:         -14.208
REMARK INTER:                 -13.010
REMARK INTRA:                  -1.199
REMARK UNBOUND:                -1.297
REMARK  9 active torsions:
REMARK  status: ('A' for Active; 'I' for Inactive)
REMARK    1  A    between atoms: C02_2  and  N03_3 
REMARK    2  A    between atoms: N03_3  and  C04_4 
REMARK    3  A    between atoms: N03_3  and  C06_6 
REMARK    4  A    between atoms: C06_6  and  C07_7 
REMARK    5  A    between atoms: C07_7  and  O08_8 
REMARK    6  A    between atoms: O08_8  and  C09_9 
REMARK    7  A    between atoms: C12_12  and  N13_13 
REMARK    8  A    between atoms: N13_13  and  C14_14 
REMARK    9  A    between atoms: C21_21  and  C26_26 
ROOT
HETATM    1  C14   D T 601      -1.024   3.854 -10.474  1.00 17.92     0.728 A 
HETATM    2  N15   D T 601      -0.901   2.701  -9.786  1.00 19.07    -0.044 NA
HETATM    3  C16   D T 601      -1.292   1.503 -10.242  1.00 18.16     0.163 A 
HETATM    4  C17   D T 601      -1.890   1.449 -11.502  1.00 16.80     0.030 A 
HETATM    5  C18   D T 601      -2.060   2.645 -12.202  1.00 18.08     0.151 A 
HETATM    6  N19   D T 601      -1.625   3.809 -11.675  1.00 16.91    -0.074 NA
HETATM    7  C20   D T 601      -2.334   0.213 -12.011  1.00 17.65     0.034 A 
HETATM    8  C21   D T 601      -2.154  -0.962 -11.263  1.00 18.53     0.047 A 
HETATM    9  C22   D T 601      -1.544  -0.846  -9.990  1.00 19.48     0.260 A 
HETATM   10  O23   D T 601      -1.444  -1.919  -9.357  1.00 21.52    -0.267 OA
HETATM   11  N24   D T 601      -1.109   0.368  -9.492  1.00 19.49    -0.301 N 
HETATM   12  C25   D T 601      -0.456   0.508  -8.201  1.00 20.07     0.161 C 
ENDROOT
BRANCH   1  13
HETATM   13  N13   D T 601      -0.584   5.005  -9.939  1.00 20.14    -0.188 N 
HETATM   14 1H13   D T 601      -1.147   5.720 -10.056  1.00 24.16     0.184 HD
BRANCH  13  15
HETATM   15  C12   D T 601       0.571   5.288  -9.245  1.00 24.69     0.049 A 
HETATM   16  C11   D T 601       0.426   6.032  -8.044  1.00 26.89     0.033 A 
HETATM   17  C10   D T 601       1.555   6.350  -7.258  1.00 28.95     0.039 A 
HETATM   18  C09   D T 601       2.836   5.911  -7.658  1.00 30.95     0.069 A 
HETATM   19  C35   D T 601       2.976   5.149  -8.832  1.00 28.80     0.039 A 
HETATM   20  C34   D T 601       1.854   4.854  -9.614  1.00 26.81     0.033 A 
BRANCH  18  21
HETATM   21  O08   D T 601       3.928   6.162  -6.903  1.00 36.09    -0.350 OA
BRANCH  21  22
HETATM   22  C07   D T 601       5.159   5.544  -7.369  1.00 42.63     0.195 C 
BRANCH  22  23
HETATM   23  C06   D T 601       6.051   6.635  -8.041  1.00 46.85     0.143 C 
BRANCH  23  24
HETATM   24  N03   D T 601       6.901   6.117  -9.179  1.00 51.06    -0.411 N 
BRANCH  24  25
HETATM   25  C02   D T 601       6.789   4.679  -9.679  1.00 53.85     0.112 C 
HETATM   26  C01   D T 601       5.830   4.368 -10.876  1.00 52.69     0.026 C 
ENDBRANCH  24  25
BRANCH  24  27
HETATM   27  C04   D T 601       7.770   7.126  -9.881  1.00 47.80     0.112 C 
HETATM   28  C05   D T 601       7.245   7.775 -11.191  1.00 44.89     0.026 C 
ENDBRANCH  24  27
ENDBRANCH  23  24
ENDBRANCH  22  23
ENDBRANCH  21  22
ENDBRANCH  18  21
ENDBRANCH  13  15
ENDBRANCH   1  13
BRANCH   8  29
HETATM   29  C26   D T 601      -2.579  -2.233 -11.768  1.00 21.63     0.023 A 
HETATM   30  C27   D T 601      -1.644  -3.108 -12.388  1.00 22.75     0.046 A 
HETATM   31 CL28   D T 601      -0.035  -2.634 -12.583  1.00 22.59    -0.083 Cl
HETATM   32  C29   D T 601      -2.029  -4.375 -12.897  1.00 24.08     0.025 A 
HETATM   33  C30   D T 601      -3.366  -4.810 -12.746  1.00 25.63     0.003 A 
HETATM   34  C31   D T 601      -4.295  -3.971 -12.116  1.00 25.41     0.025 A 
HETATM   35  C32   D T 601      -3.908  -2.697 -11.632  1.00 23.77     0.046 A 
HETATM   36 CL33   D T 601      -5.080  -1.729 -10.887  1.00 25.94    -0.083 Cl
ENDBRANCH   8  29
TORSDOF 9
ENDMDL
MODEL 4
REMARK VINA RESULT:    -8.301      1.448      2.863
REMARK INTER + INTRA:         -13.966
REMARK INTER:                 -12.965
REMARK INTRA:                  -1.000
REMARK UNBOUND:                -1.297
REMARK  9 active torsions:
REMARK  status: ('A' for Active; 'I' for Inactive)
REMARK    1  A    between atoms: C02_2  and  N03_3 
REMARK    2  A    between atoms: N03_3  and  C04_4 
REMARK    3  A    between atoms: N03_3  and  C06_6 
REMARK    4  A    between atoms: C06_6  and  C07_7 
REMARK    5  A    between atoms: C07_7  and  O08_8 
REMARK    6  A    between atoms: O08_8  and  C09_9 
REMARK    7  A    between atoms: C12_12  and  N13_13 
REMARK    8  A    between atoms: N13_13  and  C14_14 
REMARK    9  A    between atoms: C21_21  and  C26_26 
ROOT
HETATM    1  C14   D T 601      -0.375   3.094  -9.497  1.00 17.92     0.728 A 
HETATM    2  N15   D T 601      -1.215   2.820 -10.515  1.00 19.07    -0.044 NA
HETATM    3  C16   D T 601      -1.635   1.589 -10.837  1.00 18.16     0.163 A 
HETATM    4  C17   D T 601      -1.150   0.517 -10.086  1.00 16.80     0.030 A 
HETATM    5  C18   D T 601      -0.246   0.789  -9.057  1.00 18.08     0.151 A 
HETATM    6  N19   D T 601       0.116   2.061  -8.790  1.00 16.91    -0.074 NA
HETATM    7  C20   D T 601      -1.551  -0.796 -10.404  1.00 17.65     0.034 A 
HETATM    8  C21   D T 601      -2.452  -1.022 -11.458  1.00 18.53     0.047 A 
HETATM    9  C22   D T 601      -2.908   0.104 -12.187  1.00 19.48     0.260 A 
HETATM   10  O23   D T 601      -3.678  -0.163 -13.134  1.00 21.52    -0.267 OA
HETATM   11  N24   D T 601      -2.513   1.391 -11.874  1.00 19.49    -0.301 N 
HETATM   12  C25   D T 601      -2.990   2.564 -12.590  1.00 20.07     0.161 C 
ENDROOT
BRANCH   1  13
HETATM   13  N13   D T 601      -0.025   4.365  -9.239  1.00 20.14    -0.188 N 
HETATM   14 1H13   D T 601      -0.713   4.970  -9.293  1.00 24.16     0.184 HD
BRANCH  13  15
HETATM   15  C12   D T 601       1.196   4.909  -8.909  1.00 24.69     0.049 A 
HETATM   16  C11   D T 601       1.217   5.805  -7.807  1.00 26.89     0.033 A 
HETATM   17  C10   D T 601       2.428   6.394  -7.385  1.00 28.95     0.039 A 
HETATM   18  C09   D T 601       3.633   6.078  -8.052  1.00 30.95     0.069 A 
HETATM   19  C35   D T 601       3.617   5.169  -9.125  1.00 28.80     0.039 A 
HETATM   20  C34   D T 601       2.408   4.604  -9.547  1.00 26.81     0.033 A 
BRANCH  18  21
HETATM   21  O08   D T 601       4.814   6.593  -7.643  1.00 36.09    -0.350 OA
BRANCH  21  22
HETATM   22  C07   D T 601       5.345   7.662  -8.473  1.00 42.63     0.195 C 
BRANCH  22  23
HETATM   23  C06   D T 601       6.815   7.317  -8.865  1.00 46.85     0.143 C 
BRANCH  23  24
HETATM   24  N03   D T 601       6.931   6.308  -9.985  1.00 51.06    -0.411 N 
BRANCH  24  25
HETATM   25  C02   D T 601       6.528   6.645 -11.419  1.00 53.85     0.112 C 
HETATM   26  C01   D T 601       7.238   7.835 -12.143  1.00 52.69     0.026 C 
ENDBRANCH  24  25
BRANCH  24  27
HETATM   27  C04   D T 601       7.587   4.997  -9.642  1.00 47.80     0.112 C 
HETATM   28  C05   D T 601       7.222   4.315  -8.295  1.00 44.89     0.026 C 
ENDBRANCH  24  27
ENDBRANCH  23  24
ENDBRANCH  22  23
ENDBRANCH  21  22
ENDBRANCH  18  21
ENDBRANCH  13  15
ENDBRANCH   1  13
BRANCH   8  29
HETATM   29  C26   D T 601      -2.889  -2.345 -11.786  1.00 21.63     0.023 A 
HETATM   30  C27   D T 601      -1.989  -3.271 -12.383  1.00 22.75     0.046 A 
HETATM   31 CL28   D T 601      -0.411  -2.802 -12.760  1.00 22.59    -0.083 Cl
HETATM   32  C29   D T 601      -2.387  -4.591 -12.718  1.00 24.08     0.025 A 
HETATM   33  C30   D T 601      -3.698  -5.023 -12.411  1.00 25.63     0.003 A 
HETATM   34  C31   D T 601      -4.591  -4.131 -11.801  1.00 25.41     0.025 A 
HETATM   35  C32   D T 601      -4.192  -2.807 -11.492  1.00 23.77     0.046 A 
HETATM   36 CL33   D T 601      -5.320  -1.778 -10.761  1.00 25.94    -0.083 Cl
ENDBRANCH   8  29
TORSDOF 9
ENDMDL
MODEL 5
REMARK VINA RESULT:    -8.078      2.045      3.157
REMARK INTER + INTRA:         -13.625
REMARK INTER:                 -12.800
REMARK INTRA:                  -0.825
REMARK UNBOUND:                -1.297
REMARK  9 active torsions:
REMARK  status: ('A' for Active; 'I' for Inactive)
REMARK    1  A    between atoms: C02_2  and  N03_3 
REMARK    2  A    between atoms: N03_3  and  C04_4 
REMARK    3  A    between atoms: N03_3  and  C06_6 
REMARK    4  A    between atoms: C06_6  and  C07_7 
REMARK    5  A    between atoms: C07_7  and  O08_8 
REMARK    6  A    between atoms: O08_8  and  C09_9 
REMARK    7  A    between atoms: C12_12  and  N13_13 
REMARK    8  A    between atoms: N13_13  and  C14_14 
REMARK    9  A    between atoms: C21_21  and  C26_26 
ROOT
HETATM    1  C14   D T 601      -0.943   3.692 -10.687  1.00 17.92     0.728 A 
HETATM    2  N15   D T 601      -1.170   2.677  -9.830  1.00 19.07    -0.044 NA
HETATM    3  C16   D T 601      -1.091   1.380 -10.156  1.00 18.16     0.163 A 
HETATM    4  C17   D T 601      -0.778   1.058 -11.478  1.00 16.80     0.030 A 
HETATM    5  C18   D T 601      -0.584   2.105 -12.382  1.00 18.08     0.151 A 
HETATM    6  N19   D T 601      -0.670   3.386 -11.967  1.00 16.91    -0.074 NA
HETATM    7  C20   D T 601      -0.704  -0.293 -11.869  1.00 17.65     0.034 A 
HETATM    8  C21   D T 601      -0.922  -1.312 -10.926  1.00 18.53     0.047 A 
HETATM    9  C22   D T 601      -1.239  -0.926  -9.601  1.00 19.48     0.260 A 
HETATM   10  O23   D T 601      -1.458  -1.874  -8.818  1.00 21.52    -0.267 OA
HETATM   11  N24   D T 601      -1.312   0.400  -9.220  1.00 19.49    -0.301 N 
HETATM   12  C25   D T 601      -1.608   0.820  -7.859  1.00 20.07     0.161 C 
ENDROOT
BRANCH   1  13
HETATM   13  N13   D T 601      -1.029   4.963 -10.261  1.00 20.14    -0.188 N 
HETATM   14 1H13   D T 601      -1.586   5.496 -10.759  1.00 24.16     0.184 HD
BRANCH  13  15
HETATM   15  C12   D T 601      -0.421   5.596  -9.200  1.00 24.69     0.049 A 
HETATM   16  C11   D T 601      -1.015   6.806  -8.754  1.00 26.89     0.033 A 
HETATM   17  C10   D T 601      -0.470   7.511  -7.660  1.00 28.95     0.039 A 
HETATM   18  C09   D T 601       0.665   7.003  -6.991  1.00 30.95     0.069 A 
HETATM   19  C35   D T 601       1.237   5.790  -7.414  1.00 28.80     0.039 A 
HETATM   20  C34   D T 601       0.700   5.107  -8.511  1.00 26.81     0.033 A 
BRANCH  18  21
HETATM   21  O08   D T 601       1.182   7.633  -5.913  1.00 36.09    -0.350 OA
BRANCH  21  22
HETATM   22  C07   D T 601       2.572   7.321  -5.620  1.00 42.63     0.195 C 
BRANCH  22  23
HETATM   23  C06   D T 601       3.482   8.022  -6.677  1.00 46.85     0.143 C 
BRANCH  23  24
HETATM   24  N03   D T 601       4.588   7.141  -7.214  1.00 51.06    -0.411 N 
BRANCH  24  25
HETATM   25  C02   D T 601       4.777   5.703  -6.738  1.00 53.85     0.112 C 
HETATM   26  C01   D T 601       5.851   5.406  -5.641  1.00 52.69     0.026 C 
ENDBRANCH  24  25
BRANCH  24  27
HETATM   27  C04   D T 601       5.413   7.710  -8.337  1.00 47.80     0.112 C 
HETATM   28  C05   D T 601       5.772   6.788  -9.535  1.00 44.89     0.026 C 
ENDBRANCH  24  27
ENDBRANCH  23  24
ENDBRANCH  22  23
ENDBRANCH  21  22
ENDBRANCH  18  21
ENDBRANCH  13  15
ENDBRANCH   1  13
BRANCH   8  29
HETATM   29  C26   D T 601      -0.832  -2.692 -11.295  1.00 21.63     0.023 A 
HETATM   30  C27   D T 601       0.330  -3.447 -10.973  1.00 22.75     0.046 A 
HETATM   31 CL28   D T 601       1.638  -2.709 -10.201  1.00 22.59    -0.083 Cl
HETATM   32  C29   D T 601       0.452  -4.817 -11.321  1.00 24.08     0.025 A 
HETATM   33  C30   D T 601      -0.625  -5.473 -11.961  1.00 25.63     0.003 A 
HETATM   34  C31   D T 601      -1.788  -4.751 -12.264  1.00 25.41     0.025 A 
HETATM   35  C32   D T 601      -1.891  -3.376 -11.936  1.00 23.77     0.046 A 
HETATM   36 CL33   D T 601      -3.319  -2.560 -12.335  1.00 25.94    -0.083 Cl
ENDBRANCH   8  29
TORSDOF 9
ENDMDL
MODEL 6
REMARK VINA RESULT:    -7.847      2.651      3.687
REMARK INTER + INTRA:         -13.273
REMARK INTER:                 -12.449
REMARK INTRA:                  -0.824
REMARK UNBOUND:                -1.297
REMARK  9 active torsions:
REMARK  status: ('A' for Active; 'I' for Inactive)
REMARK    1  A    between atoms: C02_2  and  N03_3 
REMARK    2  A    between atoms: N03_3  and  C04_4 
REMARK    3  A    between atoms: N03_3  and  C06_6 
REMARK    4  A    between atoms: C06_6  and  C07_7 
REMARK    5  A    between atoms: C07_7  and  O08_8 
REMARK    6  A    between atoms: O08_8  and  C09_9 
REMARK    7  A    between atoms: C12_12  and  N13_13 
REMARK    8  A    between atoms: N13_13  and  C14_14 
REMARK    9  A    between atoms: C21_21  and  C26_26 
ROOT
HETATM    1  C14   D T 601      -1.310   3.884 -11.235  1.00 17.92     0.728 A 
HETATM    2  N15   D T 601      -1.584   2.920 -10.333  1.00 19.07    -0.044 NA
HETATM    3  C16   D T 601      -1.393   1.611 -10.545  1.00 18.16     0.163 A 
HETATM    4  C17   D T 601      -0.902   1.217 -11.791  1.00 16.80     0.030 A 
HETATM    5  C18   D T 601      -0.657   2.206 -12.745  1.00 18.08     0.151 A 
HETATM    6  N19   D T 601      -0.864   3.505 -12.446  1.00 16.91    -0.074 NA
HETATM    7  C20   D T 601      -0.705  -0.152 -12.062  1.00 17.65     0.034 A 
HETATM    8  C21   D T 601      -0.981  -1.112 -11.074  1.00 18.53     0.047 A 
HETATM    9  C22   D T 601      -1.479  -0.654  -9.830  1.00 19.48     0.260 A 
HETATM   10  O23   D T 601      -1.739  -1.556  -9.006  1.00 21.52    -0.267 OA
HETATM   11  N24   D T 601      -1.672   0.689  -9.566  1.00 19.49    -0.301 N 
HETATM   12  C25   D T 601      -2.156   1.185  -8.288  1.00 20.07     0.161 C 
ENDROOT
BRANCH   1  13
HETATM   13  N13   D T 601      -1.519   5.174 -10.924  1.00 20.14    -0.188 N 
HETATM   14 1H13   D T 601      -1.989   5.648 -11.553  1.00 24.16     0.184 HD
BRANCH  13  15
HETATM   15  C12   D T 601      -1.144   5.901  -9.815  1.00 24.69     0.049 A 
HETATM   16  C11   D T 601      -0.277   5.256  -8.894  1.00 26.89     0.033 A 
HETATM   17  C10   D T 601       0.173   5.933  -7.740  1.00 28.95     0.039 A 
HETATM   18  C09   D T 601      -0.226   7.268  -7.508  1.00 30.95     0.069 A 
HETATM   19  C35   D T 601      -1.061   7.916  -8.436  1.00 28.80     0.039 A 
HETATM   20  C34   D T 601      -1.517   7.231  -9.567  1.00 26.81     0.033 A 
BRANCH  18  21
HETATM   21  O08   D T 601       0.225   7.956  -6.436  1.00 36.09    -0.350 OA
BRANCH  21  22
HETATM   22  C07   D T 601       1.159   7.235  -5.585  1.00 42.63     0.195 C 
BRANCH  22  23
HETATM   23  C06   D T 601       2.594   7.804  -5.811  1.00 46.85     0.143 C 
BRANCH  23  24
HETATM   24  N03   D T 601       3.625   6.751  -6.151  1.00 51.06    -0.411 N 
BRANCH  24  25
HETATM   25  C02   D T 601       3.434   5.783  -7.315  1.00 53.85     0.112 C 
HETATM   26  C01   D T 601       4.089   6.122  -8.695  1.00 52.69     0.026 C 
ENDBRANCH  24  25
BRANCH  24  27
HETATM   27  C04   D T 601       4.909   6.791  -5.366  1.00 47.80     0.112 C 
HETATM   28  C05   D T 601       5.936   5.642  -5.564  1.00 44.89     0.026 C 
ENDBRANCH  24  27
ENDBRANCH  23  24
ENDBRANCH  22  23
ENDBRANCH  21  22
ENDBRANCH  18  21
ENDBRANCH  13  15
ENDBRANCH   1  13
BRANCH   8  29
HETATM   29  C26   D T 601      -0.769  -2.507 -11.320  1.00 21.63     0.023 A 
HETATM   30  C27   D T 601      -1.730  -3.261 -12.048  1.00 22.75     0.046 A 
HETATM   31 CL28   D T 601      -3.156  -2.533 -12.583  1.00 22.59    -0.083 Cl
HETATM   32  C29   D T 601      -1.551  -4.644 -12.312  1.00 24.08     0.025 A 
HETATM   33  C30   D T 601      -0.367  -5.288 -11.887  1.00 25.63     0.003 A 
HETATM   34  C31   D T 601       0.603  -4.554 -11.189  1.00 25.41     0.025 A 
HETATM   35  C32   D T 601       0.405  -3.179 -10.908  1.00 23.77     0.046 A 
HETATM   36 CL33   D T 601       1.611  -2.352 -10.056  1.00 25.94    -0.083 Cl
ENDBRANCH   8  29
TORSDOF 9
ENDMDL
MODEL 7
REMARK VINA RESULT:    -7.756      4.706      7.590
REMARK INTER + INTRA:         -13.134
REMARK INTER:                 -12.121
REMARK INTRA:                  -1.013
REMARK UNBOUND:                -1.297
REMARK  9 active torsions:
REMARK  status: ('A' for Active; 'I' for Inactive)
REMARK    1  A    between atoms: C02_2  and  N03_3 
REMARK    2  A    between atoms: N03_3  and  C04_4 
REMARK    3  A    between atoms: N03_3  and  C06_6 
REMARK    4  A    between atoms: C06_6  and  C07_7 
REMARK    5  A    between atoms: C07_7  and  O08_8 
REMARK    6  A    between atoms: O08_8  and  C09_9 
REMARK    7  A    between atoms: C12_12  and  N13_13 
REMARK    8  A    between atoms: N13_13  and  C14_14 
REMARK    9  A    between atoms: C21_21  and  C26_26 
ROOT
HETATM    1  C14   D T 601      -0.860   3.773 -10.823  1.00 17.92     0.728 A 
HETATM    2  N15   D T 601      -1.076   2.774  -9.943  1.00 19.07    -0.044 NA
HETATM    3  C16   D T 601      -1.006   1.471 -10.247  1.00 18.16     0.163 A 
HETATM    4  C17   D T 601      -0.717   1.124 -11.568  1.00 16.80     0.030 A 
HETATM    5  C18   D T 601      -0.535   2.153 -12.494  1.00 18.08     0.151 A 
HETATM    6  N19   D T 601      -0.610   3.442 -12.101  1.00 16.91    -0.074 NA
HETATM    7  C20   D T 601      -0.654  -0.235 -11.934  1.00 17.65     0.034 A 
HETATM    8  C21   D T 601      -0.858  -1.235 -10.969  1.00 18.53     0.047 A 
HETATM    9  C22   D T 601      -1.152  -0.824  -9.646  1.00 19.48     0.260 A 
HETATM   10  O23   D T 601      -1.359  -1.757  -8.841  1.00 21.52    -0.267 OA
HETATM   11  N24   D T 601      -1.213   0.510  -9.288  1.00 19.49    -0.301 N 
HETATM   12  C25   D T 601      -1.485   0.956  -7.931  1.00 20.07     0.161 C 
ENDROOT
BRANCH   1  13
HETATM   13  N13   D T 601      -0.935   5.051 -10.418  1.00 20.14    -0.188 N 
HETATM   14 1H13   D T 601      -0.395   5.631 -10.881  1.00 24.16     0.184 HD
BRANCH  13  15
HETATM   15  C12   D T 601      -1.690   5.635  -9.424  1.00 24.69     0.049 A 
HETATM   16  C11   D T 601      -0.977   6.283  -8.382  1.00 26.89     0.033 A 
HETATM   17  C10   D T 601      -1.669   6.925  -7.333  1.00 28.95     0.039 A 
HETATM   18  C09   D T 601      -3.082   6.939  -7.328  1.00 30.95     0.069 A 
HETATM   19  C35   D T 601      -3.787   6.321  -8.375  1.00 28.80     0.039 A 
HETATM   20  C34   D T 601      -3.093   5.672  -9.401  1.00 26.81     0.033 A 
BRANCH  18  21
HETATM   21  O08   D T 601      -3.771   7.584  -6.360  1.00 36.09    -0.350 OA
BRANCH  21  22
HETATM   22  C07   D T 601      -4.390   6.725  -5.363  1.00 42.63     0.195 C 
BRANCH  22  23
HETATM   23  C06   D T 601      -5.792   7.303  -4.995  1.00 46.85     0.143 C 
BRANCH  23  24
HETATM   24  N03   D T 601      -6.655   6.356  -4.193  1.00 51.06    -0.411 N 
BRANCH  24  25
HETATM   25  C02   D T 601      -6.313   5.976  -2.755  1.00 53.85     0.112 C 
HETATM   26  C01   D T 601      -6.987   4.711  -2.127  1.00 52.69     0.026 C 
ENDBRANCH  24  25
BRANCH  24  27
HETATM   27  C04   D T 601      -7.940   5.910  -4.838  1.00 47.80     0.112 C 
HETATM   28  C05   D T 601      -7.918   5.520  -6.342  1.00 44.89     0.026 C 
ENDBRANCH  24  27
ENDBRANCH  23  24
ENDBRANCH  22  23
ENDBRANCH  21  22
ENDBRANCH  18  21
ENDBRANCH  13  15
ENDBRANCH   1  13
BRANCH   8  29
HETATM   29  C26   D T 601      -0.779  -2.622 -11.314  1.00 21.63     0.023 A 
HETATM   30  C27   D T 601      -1.844  -3.249 -12.018  1.00 22.75     0.046 A 
HETATM   31 CL28   D T 601      -3.237  -2.377 -12.406  1.00 22.59    -0.083 Cl
HETATM   32  C29   D T 601      -1.797  -4.621 -12.379  1.00 24.08     0.025 A 
HETATM   33  C30   D T 601      -0.645  -5.382 -12.078  1.00 25.63     0.003 A 
HETATM   34  C31   D T 601       0.425  -4.774 -11.406  1.00 25.41     0.025 A 
HETATM   35  C32   D T 601       0.360  -3.410 -11.028  1.00 23.77     0.046 A 
HETATM   36 CL33   D T 601       1.682  -2.738 -10.213  1.00 25.94    -0.083 Cl
ENDBRANCH   8  29
TORSDOF 9
ENDMDL
MODEL 8
REMARK VINA RESULT:    -7.702      2.661      3.649
REMARK INTER + INTRA:         -13.052
REMARK INTER:                 -11.935
REMARK INTRA:                  -1.117
REMARK UNBOUND:                -1.297
REMARK  9 active torsions:
REMARK  status: ('A' for Active; 'I' for Inactive)
REMARK    1  A    between atoms: C02_2  and  N03_3 
REMARK    2  A    between atoms: N03_3  and  C04_4 
REMARK    3  A    between atoms: N03_3  and  C06_6 
REMARK    4  A    between atoms: C06_6  and  C07_7 
REMARK    5  A    between atoms: C07_7  and  O08_8 
REMARK    6  A    between atoms: O08_8  and  C09_9 
REMARK    7  A    between atoms: C12_12  and  N13_13 
REMARK    8  A    between atoms: N13_13  and  C14_14 
REMARK    9  A    between atoms: C21_21  and  C26_26 
ROOT
HETATM    1  C14   D T 601      -0.764   3.596 -12.798  1.00 17.92     0.728 A 
HETATM    2  N15   D T 601      -1.218   2.883 -11.747  1.00 19.07    -0.044 NA
HETATM    3  C16   D T 601      -2.217   1.993 -11.812  1.00 18.16     0.163 A 
HETATM    4  C17   D T 601      -2.847   1.809 -13.044  1.00 16.80     0.030 A 
HETATM    5  C18   D T 601      -2.410   2.574 -14.127  1.00 18.08     0.151 A 
HETATM    6  N19   D T 601      -1.387   3.441 -13.979  1.00 16.91    -0.074 NA
HETATM    7  C20   D T 601      -3.915   0.896 -13.152  1.00 17.65     0.034 A 
HETATM    8  C21   D T 601      -4.327   0.159 -12.030  1.00 18.53     0.047 A 
HETATM    9  C22   D T 601      -3.654   0.390 -10.806  1.00 19.48     0.260 A 
HETATM   10  O23   D T 601      -4.089  -0.268  -9.837  1.00 21.52    -0.267 OA
HETATM   11  N24   D T 601      -2.606   1.285 -10.702  1.00 19.49    -0.301 N 
HETATM   12  C25   D T 601      -1.882   1.518  -9.462  1.00 20.07     0.161 C 
ENDROOT
BRANCH   1  13
HETATM   13  N13   D T 601       0.257   4.453 -12.637  1.00 20.14    -0.188 N 
HETATM   14 1H13   D T 601       0.159   5.252 -13.078  1.00 24.16     0.184 HD
BRANCH  13  15
HETATM   15  C12   D T 601       1.426   4.332 -11.918  1.00 24.69     0.049 A 
HETATM   16  C11   D T 601       2.612   4.109 -12.664  1.00 26.89     0.033 A 
HETATM   17  C10   D T 601       3.858   3.993 -12.011  1.00 28.95     0.039 A 
HETATM   18  C09   D T 601       3.929   4.116 -10.606  1.00 30.95     0.069 A 
HETATM   19  C35   D T 601       2.758   4.365  -9.869  1.00 28.80     0.039 A 
HETATM   20  C34   D T 601       1.525   4.461 -10.524  1.00 26.81     0.033 A 
BRANCH  18  21
HETATM   21  O08   D T 601       5.114   4.053  -9.958  1.00 36.09    -0.350 OA
BRANCH  21  22
HETATM   22  C07   D T 601       6.218   4.731 -10.618  1.00 42.63     0.195 C 
BRANCH  22  23
HETATM   23  C06   D T 601       7.169   5.326  -9.533  1.00 46.85     0.143 C 
BRANCH  23  24
HETATM   24  N03   D T 601       6.461   5.766  -8.271  1.00 51.06    -0.411 N 
BRANCH  24  25
HETATM   25  C02   D T 601       6.495   4.929  -6.995  1.00 53.85     0.112 C 
HETATM   26  C01   D T 601       5.639   5.387  -5.769  1.00 52.69     0.026 C 
ENDBRANCH  24  25
BRANCH  24  27
HETATM   27  C04   D T 601       5.831   7.133  -8.297  1.00 47.80     0.112 C 
HETATM   28  C05   D T 601       6.494   8.239  -9.164  1.00 44.89     0.026 C 
ENDBRANCH  24  27
ENDBRANCH  23  24
ENDBRANCH  22  23
ENDBRANCH  21  22
ENDBRANCH  18  21
ENDBRANCH  13  15
ENDBRANCH   1  13
BRANCH   8  29
HETATM   29  C26   D T 601      -5.397  -0.789 -12.121  1.00 21.63     0.023 A 
HETATM   30  C27   D T 601      -6.749  -0.356 -12.034  1.00 22.75     0.046 A 
HETATM   31 CL28   D T 601      -7.106   1.273 -11.768  1.00 22.59    -0.083 Cl
HETATM   32  C29   D T 601      -7.833  -1.267 -12.123  1.00 24.08     0.025 A 
HETATM   33  C30   D T 601      -7.575  -2.638 -12.353  1.00 25.63     0.003 A 
HETATM   34  C31   D T 601      -6.249  -3.079 -12.466  1.00 25.41     0.025 A 
HETATM   35  C32   D T 601      -5.171  -2.166 -12.351  1.00 23.77     0.046 A 
HETATM   36 CL33   D T 601      -3.594  -2.763 -12.490  1.00 25.94    -0.083 Cl
ENDBRANCH   8  29
TORSDOF 9
ENDMDL
MODEL 9
REMARK VINA RESULT:    -7.472      3.978     10.587
REMARK INTER + INTRA:         -12.701
REMARK INTER:                 -11.308
REMARK INTRA:                  -1.393
REMARK UNBOUND:                -1.297
REMARK  9 active torsions:
REMARK  status: ('A' for Active; 'I' for Inactive)
REMARK    1  A    between atoms: C02_2  and  N03_3 
REMARK    2  A    between atoms: N03_3  and  C04_4 
REMARK    3  A    between atoms: N03_3  and  C06_6 
REMARK    4  A    between atoms: C06_6  and  C07_7 
REMARK    5  A    between atoms: C07_7  and  O08_8 
REMARK    6  A    between atoms: O08_8  and  C09_9 
REMARK    7  A    between atoms: C12_12  and  N13_13 
REMARK    8  A    between atoms: N13_13  and  C14_14 
REMARK    9  A    between atoms: C21_21  and  C26_26 
ROOT
HETATM    1  C14   D T 601      -3.576   1.438 -10.047  1.00 17.92     0.728 A 
HETATM    2  N15   D T 601      -3.281   2.715 -10.364  1.00 19.07    -0.044 NA
HETATM    3  C16   D T 601      -2.243   3.398  -9.863  1.00 18.16     0.163 A 
HETATM    4  C17   D T 601      -1.428   2.754  -8.931  1.00 16.80     0.030 A 
HETATM    5  C18   D T 601      -1.752   1.446  -8.566  1.00 18.08     0.151 A 
HETATM    6  N19   D T 601      -2.810   0.825  -9.129  1.00 16.91    -0.074 NA
HETATM    7  C20   D T 601      -0.337   3.442  -8.364  1.00 17.65     0.034 A 
HETATM    8  C21   D T 601      -0.059   4.763  -8.753  1.00 18.53     0.047 A 
HETATM    9  C22   D T 601      -0.922   5.367  -9.700  1.00 19.48     0.260 A 
HETATM   10  O23   D T 601      -0.645   6.553  -9.979  1.00 21.52    -0.267 OA
HETATM   11  N24   D T 601      -1.992   4.690 -10.255  1.00 19.49    -0.301 N 
HETATM   12  C25   D T 601      -2.875   5.279 -11.249  1.00 20.07     0.161 C 
ENDROOT
BRANCH   1  13
HETATM   13  N13   D T 601      -4.630   0.832 -10.617  1.00 20.14    -0.188 N 
HETATM   14 1H13   D T 601      -5.428   1.273 -10.512  1.00 24.16     0.184 HD
BRANCH  13  15
HETATM   15  C12   D T 601      -4.710  -0.343 -11.333  1.00 24.69     0.049 A 
HETATM   16  C11   D T 601      -5.206  -1.478 -10.640  1.00 26.89     0.033 A 
HETATM   17  C10   D T 601      -5.341  -2.718 -11.301  1.00 28.95     0.039 A 
HETATM   18  C09   D T 601      -4.997  -2.828 -12.666  1.00 30.95     0.069 A 
HETATM   19  C35   D T 601      -4.532  -1.696 -13.360  1.00 28.80     0.039 A 
HETATM   20  C34   D T 601      -4.385  -0.476 -12.691  1.00 26.81     0.033 A 
BRANCH  18  21
HETATM   21  O08   D T 601      -5.157  -3.990 -13.336  1.00 36.09    -0.350 OA
BRANCH  21  22
HETATM   22  C07   D T 601      -3.928  -4.605 -13.813  1.00 42.63     0.195 C 
BRANCH  22  23
HETATM   23  C06   D T 601      -3.162  -5.216 -12.598  1.00 46.85     0.143 C 
BRANCH  23  24
HETATM   24  N03   D T 601      -1.799  -4.605 -12.362  1.00 51.06    -0.411 N 
BRANCH  24  25
HETATM   25  C02   D T 601      -1.567  -3.099 -12.441  1.00 53.85     0.112 C 
HETATM   26  C01   D T 601      -1.567  -2.264 -11.118  1.00 52.69     0.026 C 
ENDBRANCH  24  25
BRANCH  24  27
HETATM   27  C04   D T 601      -0.711  -5.545 -11.917  1.00 47.80     0.112 C 
HETATM   28  C05   D T 601       0.486  -4.967 -11.112  1.00 44.89     0.026 C 
ENDBRANCH  24  27
ENDBRANCH  23  24
ENDBRANCH  22  23
ENDBRANCH  21  22
ENDBRANCH  18  21
ENDBRANCH  13  15
ENDBRANCH   1  13
BRANCH   8  29
HETATM   29  C26   D T 601       1.056   5.475  -8.206  1.00 21.63     0.023 A 
HETATM   30  C27   D T 601       0.886   6.311  -7.067  1.00 22.75     0.046 A 
HETATM   31 CL28   D T 601      -0.644   6.514  -6.383  1.00 22.59    -0.083 Cl
HETATM   32  C29   D T 601       1.969   7.029  -6.498  1.00 24.08     0.025 A 
HETATM   33  C30   D T 601       3.267   6.879  -7.038  1.00 25.63     0.003 A 
HETATM   34  C31   D T 601       3.458   6.040  -8.146  1.00 25.41     0.025 A 
HETATM   35  C32   D T 601       2.366   5.346  -8.724  1.00 23.77     0.046 A 
HETATM   36 CL33   D T 601       2.662   4.355 -10.063  1.00 25.94    -0.083 Cl
ENDBRANCH   8  29
TORSDOF 9
ENDMDL
