MODEL 1
REMARK VINA RESULT:    -8.948      0.000      0.000
REMARK INTER + INTRA:         -14.450
REMARK INTER:                 -13.656
REMARK INTRA:                  -0.794
REMARK UNBOUND:                -0.794
REMARK  9 active torsions:
REMARK  status: ('A' for Active; 'I' for Inactive)
REMARK    1  A    between atoms: C02_2  and  N03_3 
REMARK    2  A    between atoms: N03_3  and  C04_4 
REMARK    3  A    between atoms: N03_3  and  C06_6 
REMARK    4  A    between atoms: C06_6  and  C07_7 
REMARK    5  A    between atoms: C07_7  and  O08_8 
REMARK    6  A    between atoms: O08_8  and  C09_9 
REMARK    7  A    between atoms: C12_12  and  N13_13 
REMARK    8  A    between atoms: N13_13  and  C14_14 
REMARK    9  A    between atoms: C21_21  and  C26_26 
ROOT
HETATM    1  C14   D T 601       7.799   1.921  -8.763  1.00 17.92     0.728 A 
HETATM    2  N15   D T 601       9.033   1.865  -8.222  1.00 19.07    -0.044 NA
HETATM    3  C16   D T 601       9.743   0.739  -8.073  1.00 18.16     0.163 A 
HETATM    4  C17   D T 601       9.155  -0.462  -8.480  1.00 16.80     0.030 A 
HETATM    5  C18   D T 601       7.861  -0.416  -9.002  1.00 18.08     0.151 A 
HETATM    6  N19   D T 601       7.220   0.764  -9.128  1.00 16.91    -0.074 NA
HETATM    7  C20   D T 601       9.860  -1.672  -8.324  1.00 17.65     0.034 A 
HETATM    8  C21   D T 601      11.155  -1.666  -7.781  1.00 18.53     0.047 A 
HETATM    9  C22   D T 601      11.699  -0.422  -7.382  1.00 19.48     0.260 A 
HETATM   10  O23   D T 601      12.838  -0.484  -6.875  1.00 21.52    -0.267 OA
HETATM   11  N24   D T 601      11.006   0.765  -7.537  1.00 19.49    -0.301 N 
HETATM   12  C25   D T 601      11.555   2.059  -7.161  1.00 20.07     0.161 C 
ENDROOT
BRANCH   1  13
HETATM   13  N13   D T 601       7.172   3.102  -8.886  1.00 20.14    -0.188 N 
HETATM   14 1H13   D T 601       6.325   3.051  -9.232  1.00 24.16     0.184 HD
BRANCH  13  15
HETATM   15  C12   D T 601       7.594   4.377  -8.577  1.00 24.69     0.049 A 
HETATM   16  C11   D T 601       6.583   5.327  -8.280  1.00 26.89     0.033 A 
HETATM   17  C10   D T 601       6.924   6.653  -7.934  1.00 28.95     0.039 A 
HETATM   18  C09   D T 601       8.282   7.034  -7.865  1.00 30.95     0.069 A 
HETATM   19  C35   D T 601       9.285   6.085  -8.132  1.00 28.80     0.039 A 
HETATM   20  C34   D T 601       8.936   4.779  -8.491  1.00 26.81     0.033 A 
BRANCH  18  21
HETATM   21  O08   D T 601       8.639   8.282  -7.493  1.00 36.09    -0.350 OA
BRANCH  21  22
HETATM   22  C07   D T 601       9.947   8.391  -6.868  1.00 42.63     0.195 C 
BRANCH  22  23
HETATM   23  C06   D T 601       9.797   8.159  -5.332  1.00 46.85     0.143 C 
BRANCH  23  24
HETATM   24  N03   D T 601      10.905   7.328  -4.726  1.00 51.06    -0.411 N 
BRANCH  24  25
HETATM   25  C02   D T 601      10.636   5.971  -4.082  1.00 53.85     0.112 C 
HETATM   26  C01   D T 601      11.342   4.704  -4.667  1.00 52.69     0.026 C 
ENDBRANCH  24  25
BRANCH  24  27
HETATM   27  C04   D T 601      12.308   7.846  -4.906  1.00 47.80     0.112 C 
HETATM   28  C05   D T 601      12.692   9.192  -4.232  1.00 44.89     0.026 C 
ENDBRANCH  24  27
ENDBRANCH  23  24
ENDBRANCH  22  23
ENDBRANCH  21  22
ENDBRANCH  18  21
ENDBRANCH  13  15
ENDBRANCH   1  13
BRANCH   8  29
HETATM   29  C26   D T 601      11.898  -2.881  -7.631  1.00 21.63     0.023 A 
HETATM   30  C27   D T 601      11.952  -3.538  -6.371  1.00 22.75     0.046 A 
HETATM   31 CL28   D T 601      11.185  -2.865  -5.026  1.00 22.59    -0.083 Cl
HETATM   32  C29   D T 601      12.676  -4.745  -6.187  1.00 24.08     0.025 A 
HETATM   33  C30   D T 601      13.326  -5.344  -7.290  1.00 25.63     0.003 A 
HETATM   34  C31   D T 601      13.263  -4.723  -8.545  1.00 25.41     0.025 A 
HETATM   35  C32   D T 601      12.558  -3.505  -8.715  1.00 23.77     0.046 A 
HETATM   36 CL33   D T 601      12.526  -2.802 -10.255  1.00 25.94    -0.083 Cl
ENDBRANCH   8  29
TORSDOF 9
ENDMDL
MODEL 2
REMARK VINA RESULT:    -8.419      1.872      3.048
REMARK INTER + INTRA:         -13.642
REMARK INTER:                 -12.376
REMARK INTRA:                  -1.266
REMARK UNBOUND:                -0.794
REMARK  9 active torsions:
REMARK  status: ('A' for Active; 'I' for Inactive)
REMARK    1  A    between atoms: C02_2  and  N03_3 
REMARK    2  A    between atoms: N03_3  and  C04_4 
REMARK    3  A    between atoms: N03_3  and  C06_6 
REMARK    4  A    between atoms: C06_6  and  C07_7 
REMARK    5  A    between atoms: C07_7  and  O08_8 
REMARK    6  A    between atoms: O08_8  and  C09_9 
REMARK    7  A    between atoms: C12_12  and  N13_13 
REMARK    8  A    between atoms: N13_13  and  C14_14 
REMARK    9  A    between atoms: C21_21  and  C26_26 
ROOT
HETATM    1  C14   D T 601       9.405   0.287  -7.987  1.00 17.92     0.728 A 
HETATM    2  N15   D T 601      10.341  -0.438  -8.632  1.00 19.07    -0.044 NA
HETATM    3  C16   D T 601      11.016  -1.459  -8.087  1.00 18.16     0.163 A 
HETATM    4  C17   D T 601      10.752  -1.777  -6.752  1.00 16.80     0.030 A 
HETATM    5  C18   D T 601       9.815  -1.003  -6.065  1.00 18.08     0.151 A 
HETATM    6  N19   D T 601       9.171   0.002  -6.694  1.00 16.91    -0.074 NA
HETATM    7  C20   D T 601      11.453  -2.832  -6.134  1.00 17.65     0.034 A 
HETATM    8  C21   D T 601      12.396  -3.573  -6.865  1.00 18.53     0.047 A 
HETATM    9  C22   D T 601      12.626  -3.203  -8.212  1.00 19.48     0.260 A 
HETATM   10  O23   D T 601      13.500  -3.875  -8.799  1.00 21.52    -0.267 OA
HETATM   11  N24   D T 601      11.937  -2.169  -8.817  1.00 19.49    -0.301 N 
HETATM   12  C25   D T 601      12.135  -1.789 -10.207  1.00 20.07     0.161 C 
ENDROOT
BRANCH   1  13
HETATM   13  N13   D T 601       8.769   1.282  -8.624  1.00 20.14    -0.188 N 
HETATM   14 1H13   D T 601       8.210   1.010  -9.298  1.00 24.16     0.184 HD
BRANCH  13  15
HETATM   15  C12   D T 601       8.818   2.646  -8.431  1.00 24.69     0.049 A 
HETATM   16  C11   D T 601       7.684   3.389  -8.849  1.00 26.89     0.033 A 
HETATM   17  C10   D T 601       7.638   4.789  -8.672  1.00 28.95     0.039 A 
HETATM   18  C09   D T 601       8.721   5.455  -8.058  1.00 30.95     0.069 A 
HETATM   19  C35   D T 601       9.833   4.715  -7.618  1.00 28.80     0.039 A 
HETATM   20  C34   D T 601       9.876   3.330  -7.814  1.00 26.81     0.033 A 
BRANCH  18  21
HETATM   21  O08   D T 601       8.687   6.786  -7.835  1.00 36.09    -0.350 OA
BRANCH  21  22
HETATM   22  C07   D T 601       8.700   7.181  -6.436  1.00 42.63     0.195 C 
BRANCH  22  23
HETATM   23  C06   D T 601       9.918   8.124  -6.185  1.00 46.85     0.143 C 
BRANCH  23  24
HETATM   24  N03   D T 601      10.853   7.643  -5.098  1.00 51.06    -0.411 N 
BRANCH  24  25
HETATM   25  C02   D T 601      12.096   8.431  -4.696  1.00 53.85     0.112 C 
HETATM   26  C01   D T 601      12.032   9.994  -4.693  1.00 52.69     0.026 C 
ENDBRANCH  24  25
BRANCH  24  27
HETATM   27  C04   D T 601      10.426   6.413  -4.341  1.00 47.80     0.112 C 
HETATM   28  C05   D T 601      11.301   5.134  -4.452  1.00 44.89     0.026 C 
ENDBRANCH  24  27
ENDBRANCH  23  24
ENDBRANCH  22  23
ENDBRANCH  21  22
ENDBRANCH  18  21
ENDBRANCH  13  15
ENDBRANCH   1  13
BRANCH   8  29
HETATM   29  C26   D T 601      13.107  -4.661  -6.264  1.00 21.63     0.023 A 
HETATM   30  C27   D T 601      12.610  -5.990  -6.374  1.00 22.75     0.046 A 
HETATM   31 CL28   D T 601      11.151  -6.290  -7.167  1.00 22.59    -0.083 Cl
HETATM   32  C29   D T 601      13.290  -7.092  -5.793  1.00 24.08     0.025 A 
HETATM   33  C30   D T 601      14.518  -6.882  -5.127  1.00 25.63     0.003 A 
HETATM   34  C31   D T 601      15.035  -5.583  -5.030  1.00 25.41     0.025 A 
HETATM   35  C32   D T 601      14.338  -4.484  -5.591  1.00 23.77     0.046 A 
HETATM   36 CL33   D T 601      15.012  -2.939  -5.434  1.00 25.94    -0.083 Cl
ENDBRANCH   8  29
TORSDOF 9
ENDMDL
MODEL 3
REMARK VINA RESULT:    -8.412      0.481      1.829
REMARK INTER + INTRA:         -13.633
REMARK INTER:                 -13.454
REMARK INTRA:                  -0.179
REMARK UNBOUND:                -0.794
REMARK  9 active torsions:
REMARK  status: ('A' for Active; 'I' for Inactive)
REMARK    1  A    between atoms: C02_2  and  N03_3 
REMARK    2  A    between atoms: N03_3  and  C04_4 
REMARK    3  A    between atoms: N03_3  and  C06_6 
REMARK    4  A    between atoms: C06_6  and  C07_7 
REMARK    5  A    between atoms: C07_7  and  O08_8 
REMARK    6  A    between atoms: O08_8  and  C09_9 
REMARK    7  A    between atoms: C12_12  and  N13_13 
REMARK    8  A    between atoms: N13_13  and  C14_14 
REMARK    9  A    between atoms: C21_21  and  C26_26 
ROOT
HETATM    1  C14   D T 601       7.878   1.875  -8.930  1.00 17.92     0.728 A 
HETATM    2  N15   D T 601       9.084   1.827  -8.330  1.00 19.07    -0.044 NA
HETATM    3  C16   D T 601       9.782   0.703  -8.122  1.00 18.16     0.163 A 
HETATM    4  C17   D T 601       9.209  -0.505  -8.530  1.00 16.80     0.030 A 
HETATM    5  C18   D T 601       7.941  -0.467  -9.113  1.00 18.08     0.151 A 
HETATM    6  N19   D T 601       7.312   0.712  -9.296  1.00 16.91    -0.074 NA
HETATM    7  C20   D T 601       9.900  -1.713  -8.313  1.00 17.65     0.034 A 
HETATM    8  C21   D T 601      11.168  -1.700  -7.709  1.00 18.53     0.047 A 
HETATM    9  C22   D T 601      11.698  -0.448  -7.312  1.00 19.48     0.260 A 
HETATM   10  O23   D T 601      12.811  -0.503  -6.750  1.00 21.52    -0.267 OA
HETATM   11  N24   D T 601      11.018   0.736  -7.527  1.00 19.49    -0.301 N 
HETATM   12  C25   D T 601      11.553   2.036  -7.154  1.00 20.07     0.161 C 
ENDROOT
BRANCH   1  13
HETATM   13  N13   D T 601       7.263   3.055  -9.109  1.00 20.14    -0.188 N 
HETATM   14 1H13   D T 601       6.548   3.031  -9.683  1.00 24.16     0.184 HD
BRANCH  13  15
HETATM   15  C12   D T 601       7.530   4.295  -8.572  1.00 24.69     0.049 A 
HETATM   16  C11   D T 601       8.888   4.582  -8.276  1.00 26.89     0.033 A 
HETATM   17  C10   D T 601       9.256   5.836  -7.742  1.00 28.95     0.039 A 
HETATM   18  C09   D T 601       8.270   6.820  -7.514  1.00 30.95     0.069 A 
HETATM   19  C35   D T 601       6.928   6.546  -7.834  1.00 28.80     0.039 A 
HETATM   20  C34   D T 601       6.571   5.294  -8.347  1.00 26.81     0.033 A 
BRANCH  18  21
HETATM   21  O08   D T 601       8.598   8.043  -7.046  1.00 36.09    -0.350 OA
BRANCH  21  22
HETATM   22  C07   D T 601       9.233   8.055  -5.738  1.00 42.63     0.195 C 
BRANCH  22  23
HETATM   23  C06   D T 601      10.650   8.694  -5.867  1.00 46.85     0.143 C 
BRANCH  23  24
HETATM   24  N03   D T 601      11.741   7.915  -5.167  1.00 51.06    -0.411 N 
BRANCH  24  25
HETATM   25  C02   D T 601      11.715   6.392  -5.079  1.00 53.85     0.112 C 
HETATM   26  C01   D T 601      10.633   5.705  -4.181  1.00 52.69     0.026 C 
ENDBRANCH  24  25
BRANCH  24  27
HETATM   27  C04   D T 601      12.922   8.708  -4.673  1.00 47.80     0.112 C 
HETATM   28  C05   D T 601      12.695  10.184  -4.242  1.00 44.89     0.026 C 
ENDBRANCH  24  27
ENDBRANCH  23  24
ENDBRANCH  22  23
ENDBRANCH  21  22
ENDBRANCH  18  21
ENDBRANCH  13  15
ENDBRANCH   1  13
BRANCH   8  29
HETATM   29  C26   D T 601      11.898  -2.914  -7.497  1.00 21.63     0.023 A 
HETATM   30  C27   D T 601      12.614  -3.518  -8.567  1.00 22.75     0.046 A 
HETATM   31 CL28   D T 601      12.566  -2.839 -10.113  1.00 22.59    -0.083 Cl
HETATM   32  C29   D T 601      13.350  -4.718  -8.391  1.00 24.08     0.025 A 
HETATM   33  C30   D T 601      13.420  -5.312  -7.111  1.00 25.63     0.003 A 
HETATM   34  C31   D T 601      12.741  -4.718  -6.038  1.00 25.41     0.025 A 
HETATM   35  C32   D T 601      11.987  -3.532  -6.228  1.00 23.77     0.046 A 
HETATM   36 CL33   D T 601      11.185  -2.868  -4.894  1.00 25.94    -0.083 Cl
ENDBRANCH   8  29
TORSDOF 9
ENDMDL
MODEL 4
REMARK VINA RESULT:    -8.408      0.971      1.879
REMARK INTER + INTRA:         -13.626
REMARK INTER:                 -13.251
REMARK INTRA:                  -0.375
REMARK UNBOUND:                -0.794
REMARK  9 active torsions:
REMARK  status: ('A' for Active; 'I' for Inactive)
REMARK    1  A    between atoms: C02_2  and  N03_3 
REMARK    2  A    between atoms: N03_3  and  C04_4 
REMARK    3  A    between atoms: N03_3  and  C06_6 
REMARK    4  A    between atoms: C06_6  and  C07_7 
REMARK    5  A    between atoms: C07_7  and  O08_8 
REMARK    6  A    between atoms: O08_8  and  C09_9 
REMARK    7  A    between atoms: C12_12  and  N13_13 
REMARK    8  A    between atoms: N13_13  and  C14_14 
REMARK    9  A    between atoms: C21_21  and  C26_26 
ROOT
HETATM    1  C14   D T 601       8.058   2.061  -8.619  1.00 17.92     0.728 A 
HETATM    2  N15   D T 601       9.291   1.927  -8.092  1.00 19.07    -0.044 NA
HETATM    3  C16   D T 601       9.937   0.761  -7.963  1.00 18.16     0.163 A 
HETATM    4  C17   D T 601       9.277  -0.399  -8.377  1.00 16.80     0.030 A 
HETATM    5  C18   D T 601       7.982  -0.273  -8.884  1.00 18.08     0.151 A 
HETATM    6  N19   D T 601       7.409   0.944  -8.991  1.00 16.91    -0.074 NA
HETATM    7  C20   D T 601       9.912  -1.650  -8.242  1.00 17.65     0.034 A 
HETATM    8  C21   D T 601      11.211  -1.725  -7.713  1.00 18.53     0.047 A 
HETATM    9  C22   D T 601      11.829  -0.519  -7.306  1.00 19.48     0.260 A 
HETATM   10  O23   D T 601      12.968  -0.653  -6.811  1.00 21.52    -0.267 OA
HETATM   11  N24   D T 601      11.204   0.707  -7.440  1.00 19.49    -0.301 N 
HETATM   12  C25   D T 601      11.831   1.963  -7.056  1.00 20.07     0.161 C 
ENDROOT
BRANCH   1  13
HETATM   13  N13   D T 601       7.499   3.277  -8.722  1.00 20.14    -0.188 N 
HETATM   14 1H13   D T 601       6.707   3.297  -9.183  1.00 24.16     0.184 HD
BRANCH  13  15
HETATM   15  C12   D T 601       7.921   4.501  -8.249  1.00 24.69     0.049 A 
HETATM   16  C11   D T 601       9.324   4.699  -8.160  1.00 26.89     0.033 A 
HETATM   17  C10   D T 601       9.847   5.928  -7.704  1.00 28.95     0.039 A 
HETATM   18  C09   D T 601       8.970   6.977  -7.351  1.00 30.95     0.069 A 
HETATM   19  C35   D T 601       7.581   6.790  -7.466  1.00 28.80     0.039 A 
HETATM   20  C34   D T 601       7.072   5.562  -7.902  1.00 26.81     0.033 A 
BRANCH  18  21
HETATM   21  O08   D T 601       9.442   8.179  -6.954  1.00 36.09    -0.350 OA
BRANCH  21  22
HETATM   22  C07   D T 601       9.732   8.292  -5.534  1.00 42.63     0.195 C 
BRANCH  22  23
HETATM   23  C06   D T 601      11.273   8.170  -5.318  1.00 46.85     0.143 C 
BRANCH  23  24
HETATM   24  N03   D T 601      11.913   9.416  -4.750  1.00 51.06    -0.411 N 
BRANCH  24  25
HETATM   25  C02   D T 601      11.216  10.773  -4.792  1.00 53.85     0.112 C 
HETATM   26  C01   D T 601      12.066  12.066  -4.561  1.00 52.69     0.026 C 
ENDBRANCH  24  25
BRANCH  24  27
HETATM   27  C04   D T 601      13.218   9.228  -4.022  1.00 47.80     0.112 C 
HETATM   28  C05   D T 601      14.487   8.892  -4.853  1.00 44.89     0.026 C 
ENDBRANCH  24  27
ENDBRANCH  23  24
ENDBRANCH  22  23
ENDBRANCH  21  22
ENDBRANCH  18  21
ENDBRANCH  13  15
ENDBRANCH   1  13
BRANCH   8  29
HETATM   29  C26   D T 601      11.884  -2.983  -7.584  1.00 21.63     0.023 A 
HETATM   30  C27   D T 601      11.899  -3.664  -6.336  1.00 22.75     0.046 A 
HETATM   31 CL28   D T 601      11.169  -2.972  -4.980  1.00 22.59    -0.083 Cl
HETATM   32  C29   D T 601      12.553  -4.913  -6.173  1.00 24.08     0.025 A 
HETATM   33  C30   D T 601      13.169  -5.527  -7.287  1.00 25.63     0.003 A 
HETATM   34  C31   D T 601      13.143  -4.883  -8.531  1.00 25.41     0.025 A 
HETATM   35  C32   D T 601      12.509  -3.624  -8.679  1.00 23.77     0.046 A 
HETATM   36 CL33   D T 601      12.518  -2.893 -10.206  1.00 25.94    -0.083 Cl
ENDBRANCH   8  29
TORSDOF 9
ENDMDL
MODEL 5
REMARK VINA RESULT:    -7.956      2.215      3.940
REMARK INTER + INTRA:         -12.937
REMARK INTER:                 -12.187
REMARK INTRA:                  -0.750
REMARK UNBOUND:                -0.794
REMARK  9 active torsions:
REMARK  status: ('A' for Active; 'I' for Inactive)
REMARK    1  A    between atoms: C02_2  and  N03_3 
REMARK    2  A    between atoms: N03_3  and  C04_4 
REMARK    3  A    between atoms: N03_3  and  C06_6 
REMARK    4  A    between atoms: C06_6  and  C07_7 
REMARK    5  A    between atoms: C07_7  and  O08_8 
REMARK    6  A    between atoms: O08_8  and  C09_9 
REMARK    7  A    between atoms: C12_12  and  N13_13 
REMARK    8  A    between atoms: N13_13  and  C14_14 
REMARK    9  A    between atoms: C21_21  and  C26_26 
ROOT
HETATM    1  C14   D T 601      10.225   3.910  -7.215  1.00 17.92     0.728 A 
HETATM    2  N15   D T 601       9.544   2.818  -7.618  1.00 19.07    -0.044 NA
HETATM    3  C16   D T 601      10.066   1.587  -7.698  1.00 18.16     0.163 A 
HETATM    4  C17   D T 601      11.415   1.428  -7.368  1.00 16.80     0.030 A 
HETATM    5  C18   D T 601      12.137   2.562  -6.992  1.00 18.08     0.151 A 
HETATM    6  N19   D T 601      11.530   3.764  -6.926  1.00 16.91    -0.074 NA
HETATM    7  C20   D T 601      12.009   0.154  -7.458  1.00 17.65     0.034 A 
HETATM    8  C21   D T 601      11.242  -0.954  -7.854  1.00 18.53     0.047 A 
HETATM    9  C22   D T 601       9.882  -0.733  -8.181  1.00 19.48     0.260 A 
HETATM   10  O23   D T 601       9.262  -1.748  -8.561  1.00 21.52    -0.267 OA
HETATM   11  N24   D T 601       9.301   0.518  -8.092  1.00 19.49    -0.301 N 
HETATM   12  C25   D T 601       7.900   0.765  -8.394  1.00 20.07     0.161 C 
ENDROOT
BRANCH   1  13
HETATM   13  N13   D T 601       9.609   5.101  -7.151  1.00 20.14    -0.188 N 
HETATM   14 1H13   D T 601       8.776   5.121  -7.532  1.00 24.16     0.184 HD
BRANCH  13  15
HETATM   15  C12   D T 601      10.024   6.296  -6.606  1.00 24.69     0.049 A 
HETATM   16  C11   D T 601       9.477   7.478  -7.172  1.00 26.89     0.033 A 
HETATM   17  C10   D T 601       9.830   8.746  -6.664  1.00 28.95     0.039 A 
HETATM   18  C09   D T 601      10.722   8.843  -5.573  1.00 30.95     0.069 A 
HETATM   19  C35   D T 601      11.242   7.672  -4.994  1.00 28.80     0.039 A 
HETATM   20  C34   D T 601      10.899   6.420  -5.516  1.00 26.81     0.033 A 
BRANCH  18  21
HETATM   21  O08   D T 601      11.043  10.040  -5.037  1.00 36.09    -0.350 OA
BRANCH  21  22
HETATM   22  C07   D T 601      12.432  10.183  -4.629  1.00 42.63     0.195 C 
BRANCH  22  23
HETATM   23  C06   D T 601      12.547  11.376  -3.629  1.00 46.85     0.143 C 
BRANCH  23  24
HETATM   24  N03   D T 601      13.595  11.178  -2.557  1.00 51.06    -0.411 N 
BRANCH  24  25
HETATM   25  C02   D T 601      13.375  11.637  -1.119  1.00 53.85     0.112 C 
HETATM   26  C01   D T 601      12.233  10.973  -0.280  1.00 52.69     0.026 C 
ENDBRANCH  24  25
BRANCH  24  27
HETATM   27  C04   D T 601      14.816  10.389  -2.950  1.00 47.80     0.112 C 
HETATM   28  C05   D T 601      15.766   9.888  -1.827  1.00 44.89     0.026 C 
ENDBRANCH  24  27
ENDBRANCH  23  24
ENDBRANCH  22  23
ENDBRANCH  21  22
ENDBRANCH  18  21
ENDBRANCH  13  15
ENDBRANCH   1  13
BRANCH   8  29
HETATM   29  C26   D T 601      11.819  -2.262  -7.933  1.00 21.63     0.023 A 
HETATM   30  C27   D T 601      12.400  -2.718  -9.148  1.00 22.75     0.046 A 
HETATM   31 CL28   D T 601      12.367  -1.743 -10.526  1.00 22.59    -0.083 Cl
HETATM   32  C29   D T 601      12.983  -4.007  -9.261  1.00 24.08     0.025 A 
HETATM   33  C30   D T 601      13.036  -4.850  -8.128  1.00 25.63     0.003 A 
HETATM   34  C31   D T 601      12.491  -4.408  -6.915  1.00 25.41     0.025 A 
HETATM   35  C32   D T 601      11.888  -3.129  -6.817  1.00 23.77     0.046 A 
HETATM   36 CL33   D T 601      11.241  -2.656  -5.326  1.00 25.94    -0.083 Cl
ENDBRANCH   8  29
TORSDOF 9
ENDMDL
MODEL 6
REMARK VINA RESULT:    -7.770      1.651      3.080
REMARK INTER + INTRA:         -12.653
REMARK INTER:                 -12.406
REMARK INTRA:                  -0.247
REMARK UNBOUND:                -0.794
REMARK  9 active torsions:
REMARK  status: ('A' for Active; 'I' for Inactive)
REMARK    1  A    between atoms: C02_2  and  N03_3 
REMARK    2  A    between atoms: N03_3  and  C04_4 
REMARK    3  A    between atoms: N03_3  and  C06_6 
REMARK    4  A    between atoms: C06_6  and  C07_7 
REMARK    5  A    between atoms: C07_7  and  O08_8 
REMARK    6  A    between atoms: O08_8  and  C09_9 
REMARK    7  A    between atoms: C12_12  and  N13_13 
REMARK    8  A    between atoms: N13_13  and  C14_14 
REMARK    9  A    between atoms: C21_21  and  C26_26 
ROOT
HETATM    1  C14   D T 601       8.642   3.389  -8.211  1.00 17.92     0.728 A 
HETATM    2  N15   D T 601       9.817   3.019  -7.663  1.00 19.07    -0.044 NA
HETATM    3  C16   D T 601      10.308   1.773  -7.696  1.00 18.16     0.163 A 
HETATM    4  C17   D T 601       9.538   0.785  -8.316  1.00 16.80     0.030 A 
HETATM    5  C18   D T 601       8.300   1.153  -8.848  1.00 18.08     0.151 A 
HETATM    6  N19   D T 601       7.886   2.435  -8.781  1.00 16.91    -0.074 NA
HETATM    7  C20   D T 601      10.008  -0.543  -8.357  1.00 17.65     0.034 A 
HETATM    8  C21   D T 601      11.254  -0.865  -7.796  1.00 18.53     0.047 A 
HETATM    9  C22   D T 601      11.989   0.175  -7.177  1.00 19.48     0.260 A 
HETATM   10  O23   D T 601      13.072  -0.179  -6.666  1.00 21.52    -0.267 OA
HETATM   11  N24   D T 601      11.526   1.477  -7.139  1.00 19.49    -0.301 N 
HETATM   12  C25   D T 601      12.276   2.568  -6.535  1.00 20.07     0.161 C 
ENDROOT
BRANCH   1  13
HETATM   13  N13   D T 601       8.242   4.669  -8.141  1.00 20.14    -0.188 N 
HETATM   14 1H13   D T 601       7.453   4.847  -8.572  1.00 24.16     0.184 HD
BRANCH  13  15
HETATM   15  C12   D T 601       8.822   5.757  -7.526  1.00 24.69     0.049 A 
HETATM   16  C11   D T 601       9.898   5.488  -6.640  1.00 26.89     0.033 A 
HETATM   17  C10   D T 601      10.565   6.544  -5.981  1.00 28.95     0.039 A 
HETATM   18  C09   D T 601      10.171   7.879  -6.217  1.00 30.95     0.069 A 
HETATM   19  C35   D T 601       9.124   8.147  -7.117  1.00 28.80     0.039 A 
HETATM   20  C34   D T 601       8.458   7.093  -7.751  1.00 26.81     0.033 A 
BRANCH  18  21
HETATM   21  O08   D T 601      10.819   8.912  -5.636  1.00 36.09    -0.350 OA
BRANCH  21  22
HETATM   22  C07   D T 601      12.071   8.568  -4.982  1.00 42.63     0.195 C 
BRANCH  22  23
HETATM   23  C06   D T 601      12.224   9.431  -3.691  1.00 46.85     0.143 C 
BRANCH  23  24
HETATM   24  N03   D T 601      13.548  10.155  -3.591  1.00 51.06    -0.411 N 
BRANCH  24  25
HETATM   25  C02   D T 601      14.375  10.152  -2.308  1.00 53.85     0.112 C 
HETATM   26  C01   D T 601      15.063  11.480  -1.850  1.00 52.69     0.026 C 
ENDBRANCH  24  25
BRANCH  24  27
HETATM   27  C04   D T 601      14.074  10.772  -4.860  1.00 47.80     0.112 C 
HETATM   28  C05   D T 601      13.591  12.198  -5.246  1.00 44.89     0.026 C 
ENDBRANCH  24  27
ENDBRANCH  23  24
ENDBRANCH  22  23
ENDBRANCH  21  22
ENDBRANCH  18  21
ENDBRANCH  13  15
ENDBRANCH   1  13
BRANCH   8  29
HETATM   29  C26   D T 601      11.762  -2.204  -7.843  1.00 21.63     0.023 A 
HETATM   30  C27   D T 601      12.378  -2.696  -9.026  1.00 22.75     0.046 A 
HETATM   31 CL28   D T 601      12.470  -1.727 -10.405  1.00 22.59    -0.083 Cl
HETATM   32  C29   D T 601      12.894  -4.016  -9.106  1.00 24.08     0.025 A 
HETATM   33  C30   D T 601      12.842  -4.855  -7.971  1.00 25.63     0.003 A 
HETATM   34  C31   D T 601      12.261  -4.379  -6.788  1.00 25.41     0.025 A 
HETATM   35  C32   D T 601      11.725  -3.068  -6.724  1.00 23.77     0.046 A 
HETATM   36 CL33   D T 601      11.029  -2.554  -5.269  1.00 25.94    -0.083 Cl
ENDBRANCH   8  29
TORSDOF 9
ENDMDL
MODEL 7
REMARK VINA RESULT:    -7.720      2.956      4.367
REMARK INTER + INTRA:         -12.576
REMARK INTER:                 -11.825
REMARK INTRA:                  -0.751
REMARK UNBOUND:                -0.794
REMARK  9 active torsions:
REMARK  status: ('A' for Active; 'I' for Inactive)
REMARK    1  A    between atoms: C02_2  and  N03_3 
REMARK    2  A    between atoms: N03_3  and  C04_4 
REMARK    3  A    between atoms: N03_3  and  C06_6 
REMARK    4  A    between atoms: C06_6  and  C07_7 
REMARK    5  A    between atoms: C07_7  and  O08_8 
REMARK    6  A    between atoms: O08_8  and  C09_9 
REMARK    7  A    between atoms: C12_12  and  N13_13 
REMARK    8  A    between atoms: N13_13  and  C14_14 
REMARK    9  A    between atoms: C21_21  and  C26_26 
ROOT
HETATM    1  C14   D T 601      10.198  -1.341  -8.487  1.00 17.92     0.728 A 
HETATM    2  N15   D T 601      10.380  -0.931  -7.216  1.00 19.07    -0.044 NA
HETATM    3  C16   D T 601      11.402  -1.310  -6.438  1.00 18.16     0.163 A 
HETATM    4  C17   D T 601      12.329  -2.210  -6.970  1.00 16.80     0.030 A 
HETATM    5  C18   D T 601      12.123  -2.672  -8.272  1.00 18.08     0.151 A 
HETATM    6  N19   D T 601      11.072  -2.230  -8.992  1.00 16.91    -0.074 NA
HETATM    7  C20   D T 601      13.409  -2.650  -6.179  1.00 17.65     0.034 A 
HETATM    8  C21   D T 601      13.564  -2.167  -4.870  1.00 18.53     0.047 A 
HETATM    9  C22   D T 601      12.593  -1.260  -4.381  1.00 19.48     0.260 A 
HETATM   10  O23   D T 601      12.765  -0.893  -3.200  1.00 21.52    -0.267 OA
HETATM   11  N24   D T 601      11.534  -0.829  -5.159  1.00 19.49    -0.301 N 
HETATM   12  C25   D T 601      10.541   0.123  -4.689  1.00 20.07     0.161 C 
ENDROOT
BRANCH   1  13
HETATM   13  N13   D T 601       9.149  -0.891  -9.195  1.00 20.14    -0.188 N 
HETATM   14 1H13   D T 601       8.716  -1.533  -9.685  1.00 24.16     0.184 HD
BRANCH  13  15
HETATM   15  C12   D T 601       8.618   0.375  -9.303  1.00 24.69     0.049 A 
HETATM   16  C11   D T 601       8.993   1.311  -8.304  1.00 26.89     0.033 A 
HETATM   17  C10   D T 601       8.512   2.637  -8.346  1.00 28.95     0.039 A 
HETATM   18  C09   D T 601       7.665   3.044  -9.400  1.00 30.95     0.069 A 
HETATM   19  C35   D T 601       7.316   2.125 -10.406  1.00 28.80     0.039 A 
HETATM   20  C34   D T 601       7.784   0.808 -10.345  1.00 26.81     0.033 A 
BRANCH  18  21
HETATM   21  O08   D T 601       7.226   4.318  -9.491  1.00 36.09    -0.350 OA
BRANCH  21  22
HETATM   22  C07   D T 601       7.059   5.007  -8.222  1.00 42.63     0.195 C 
BRANCH  22  23
HETATM   23  C06   D T 601       7.916   6.312  -8.236  1.00 46.85     0.143 C 
BRANCH  23  24
HETATM   24  N03   D T 601       9.072   6.296  -7.262  1.00 51.06    -0.411 N 
BRANCH  24  25
HETATM   25  C02   D T 601      10.261   5.355  -7.435  1.00 53.85     0.112 C 
HETATM   26  C01   D T 601      10.792   4.572  -6.189  1.00 52.69     0.026 C 
ENDBRANCH  24  25
BRANCH  24  27
HETATM   27  C04   D T 601       9.055   7.347  -6.183  1.00 47.80     0.112 C 
HETATM   28  C05   D T 601      10.315   8.237  -5.997  1.00 44.89     0.026 C 
ENDBRANCH  24  27
ENDBRANCH  23  24
ENDBRANCH  22  23
ENDBRANCH  21  22
ENDBRANCH  18  21
ENDBRANCH  13  15
ENDBRANCH   1  13
BRANCH   8  29
HETATM   29  C26   D T 601      14.665  -2.583  -4.055  1.00 21.63     0.023 A 
HETATM   30  C27   D T 601      14.624  -3.834  -3.378  1.00 22.75     0.046 A 
HETATM   31 CL28   D T 601      13.255  -4.815  -3.485  1.00 22.59    -0.083 Cl
HETATM   32  C29   D T 601      15.698  -4.279  -2.564  1.00 24.08     0.025 A 
HETATM   33  C30   D T 601      16.865  -3.489  -2.455  1.00 25.63     0.003 A 
HETATM   34  C31   D T 601      16.933  -2.265  -3.134  1.00 25.41     0.025 A 
HETATM   35  C32   D T 601      15.846  -1.815  -3.925  1.00 23.77     0.046 A 
HETATM   36 CL33   D T 601      15.988  -0.325  -4.715  1.00 25.94    -0.083 Cl
ENDBRANCH   8  29
TORSDOF 9
ENDMDL
MODEL 8
REMARK VINA RESULT:    -7.692      2.334      3.900
REMARK INTER + INTRA:         -12.533
REMARK INTER:                 -11.894
REMARK INTRA:                  -0.639
REMARK UNBOUND:                -0.794
REMARK  9 active torsions:
REMARK  status: ('A' for Active; 'I' for Inactive)
REMARK    1  A    between atoms: C02_2  and  N03_3 
REMARK    2  A    between atoms: N03_3  and  C04_4 
REMARK    3  A    between atoms: N03_3  and  C06_6 
REMARK    4  A    between atoms: C06_6  and  C07_7 
REMARK    5  A    between atoms: C07_7  and  O08_8 
REMARK    6  A    between atoms: O08_8  and  C09_9 
REMARK    7  A    between atoms: C12_12  and  N13_13 
REMARK    8  A    between atoms: N13_13  and  C14_14 
REMARK    9  A    between atoms: C21_21  and  C26_26 
ROOT
HETATM    1  C14   D T 601      10.420   4.086  -6.958  1.00 17.92     0.728 A 
HETATM    2  N15   D T 601       9.717   3.048  -7.453  1.00 19.07    -0.044 NA
HETATM    3  C16   D T 601      10.192   1.801  -7.572  1.00 18.16     0.163 A 
HETATM    4  C17   D T 601      11.513   1.566  -7.183  1.00 16.80     0.030 A 
HETATM    5  C18   D T 601      12.261   2.646  -6.709  1.00 18.08     0.151 A 
HETATM    6  N19   D T 601      11.701   3.869  -6.611  1.00 16.91    -0.074 NA
HETATM    7  C20   D T 601      12.058   0.273  -7.309  1.00 17.65     0.034 A 
HETATM    8  C21   D T 601      11.269  -0.778  -7.804  1.00 18.53     0.047 A 
HETATM    9  C22   D T 601       9.939  -0.482  -8.187  1.00 19.48     0.260 A 
HETATM   10  O23   D T 601       9.298  -1.447  -8.652  1.00 21.52    -0.267 OA
HETATM   11  N24   D T 601       9.406   0.788  -8.061  1.00 19.49    -0.301 N 
HETATM   12  C25   D T 601       8.034   1.111  -8.422  1.00 20.07     0.161 C 
ENDROOT
BRANCH   1  13
HETATM   13  N13   D T 601       9.851   5.298  -6.862  1.00 20.14    -0.188 N 
HETATM   14 1H13   D T 601       9.009   5.355  -7.220  1.00 24.16     0.184 HD
BRANCH  13  15
HETATM   15  C12   D T 601      10.325   6.470  -6.313  1.00 24.69     0.049 A 
HETATM   16  C11   D T 601       9.796   7.678  -6.838  1.00 26.89     0.033 A 
HETATM   17  C10   D T 601      10.210   8.925  -6.323  1.00 28.95     0.039 A 
HETATM   18  C09   D T 601      11.142   8.973  -5.264  1.00 30.95     0.069 A 
HETATM   19  C35   D T 601      11.644   7.776  -4.724  1.00 28.80     0.039 A 
HETATM   20  C34   D T 601      11.242   6.545  -5.254  1.00 26.81     0.033 A 
BRANCH  18  21
HETATM   21  O08   D T 601      11.523  10.150  -4.720  1.00 36.09    -0.350 OA
BRANCH  21  22
HETATM   22  C07   D T 601      12.959  10.364  -4.649  1.00 42.63     0.195 C 
BRANCH  22  23
HETATM   23  C06   D T 601      13.234  11.742  -3.970  1.00 46.85     0.143 C 
BRANCH  23  24
HETATM   24  N03   D T 601      14.058  11.649  -2.706  1.00 51.06    -0.411 N 
BRANCH  24  25
HETATM   25  C02   D T 601      15.520  11.209  -2.725  1.00 53.85     0.112 C 
HETATM   26  C01   D T 601      15.850   9.683  -2.627  1.00 52.69     0.026 C 
ENDBRANCH  24  25
BRANCH  24  27
HETATM   27  C04   D T 601      13.404  12.138  -1.440  1.00 47.80     0.112 C 
HETATM   28  C05   D T 601      11.858  12.285  -1.415  1.00 44.89     0.026 C 
ENDBRANCH  24  27
ENDBRANCH  23  24
ENDBRANCH  22  23
ENDBRANCH  21  22
ENDBRANCH  18  21
ENDBRANCH  13  15
ENDBRANCH   1  13
BRANCH   8  29
HETATM   29  C26   D T 601      11.795  -2.105  -7.922  1.00 21.63     0.023 A 
HETATM   30  C27   D T 601      11.757  -2.994  -6.813  1.00 22.75     0.046 A 
HETATM   31 CL28   D T 601      11.140  -2.477  -5.329  1.00 22.59    -0.083 Cl
HETATM   32  C29   D T 601      12.267  -4.316  -6.896  1.00 24.08     0.025 A 
HETATM   33  C30   D T 601      12.785  -4.788  -8.123  1.00 25.63     0.003 A 
HETATM   34  C31   D T 601      12.809  -3.934  -9.234  1.00 25.41     0.025 A 
HETATM   35  C32   D T 601      12.320  -2.606  -9.136  1.00 23.77     0.046 A 
HETATM   36 CL33   D T 601      12.383  -1.622 -10.512  1.00 25.94    -0.083 Cl
ENDBRANCH   8  29
TORSDOF 9
ENDMDL
MODEL 9
REMARK VINA RESULT:    -7.544      2.137      3.254
REMARK INTER + INTRA:         -12.307
REMARK INTER:                 -11.916
REMARK INTRA:                  -0.391
REMARK UNBOUND:                -0.794
REMARK  9 active torsions:
REMARK  status: ('A' for Active; 'I' for Inactive)
REMARK    1  A    between atoms: C02_2  and  N03_3 
REMARK    2  A    between atoms: N03_3  and  C04_4 
REMARK    3  A    between atoms: N03_3  and  C06_6 
REMARK    4  A    between atoms: C06_6  and  C07_7 
REMARK    5  A    between atoms: C07_7  and  O08_8 
REMARK    6  A    between atoms: O08_8  and  C09_9 
REMARK    7  A    between atoms: C12_12  and  N13_13 
REMARK    8  A    between atoms: N13_13  and  C14_14 
REMARK    9  A    between atoms: C21_21  and  C26_26 
ROOT
HETATM    1  C14   D T 601       9.320   3.718  -7.660  1.00 17.92     0.728 A 
HETATM    2  N15   D T 601      10.430   3.142  -7.158  1.00 19.07    -0.044 NA
HETATM    3  C16   D T 601      10.764   1.857  -7.341  1.00 18.16     0.163 A 
HETATM    4  C17   D T 601       9.890   1.054  -8.077  1.00 16.80     0.030 A 
HETATM    5  C18   D T 601       8.716   1.634  -8.563  1.00 18.08     0.151 A 
HETATM    6  N19   D T 601       8.462   2.940  -8.343  1.00 16.91    -0.074 NA
HETATM    7  C20   D T 601      10.193  -0.308  -8.276  1.00 17.65     0.034 A 
HETATM    8  C21   D T 601      11.380  -0.847  -7.756  1.00 18.53     0.047 A 
HETATM    9  C22   D T 601      12.227   0.012  -7.014  1.00 19.48     0.260 A 
HETATM   10  O23   D T 601      13.248  -0.533  -6.547  1.00 21.52    -0.267 OA
HETATM   11  N24   D T 601      11.927   1.348  -6.820  1.00 19.49    -0.301 N 
HETATM   12  C25   D T 601      12.795   2.256  -6.087  1.00 20.07     0.161 C 
ENDROOT
BRANCH   1  13
HETATM   13  N13   D T 601       9.079   5.020  -7.437  1.00 20.14    -0.188 N 
HETATM   14 1H13   D T 601       8.295   5.331  -7.795  1.00 24.16     0.184 HD
BRANCH  13  15
HETATM   15  C12   D T 601       9.817   5.964  -6.757  1.00 24.69     0.049 A 
HETATM   16  C11   D T 601       9.457   7.322  -6.962  1.00 26.89     0.033 A 
HETATM   17  C10   D T 601      10.146   8.356  -6.292  1.00 28.95     0.039 A 
HETATM   18  C09   D T 601      11.191   8.038  -5.397  1.00 30.95     0.069 A 
HETATM   19  C35   D T 601      11.529   6.692  -5.172  1.00 28.80     0.039 A 
HETATM   20  C34   D T 601      10.852   5.675  -5.854  1.00 26.81     0.033 A 
BRANCH  18  21
HETATM   21  O08   D T 601      11.838   9.003  -4.708  1.00 36.09    -0.350 OA
BRANCH  21  22
HETATM   22  C07   D T 601      11.431  10.364  -5.017  1.00 42.63     0.195 C 
BRANCH  22  23
HETATM   23  C06   D T 601      12.684  11.292  -4.971  1.00 46.85     0.143 C 
BRANCH  23  24
HETATM   24  N03   D T 601      13.180  11.584  -3.572  1.00 51.06    -0.411 N 
BRANCH  24  25
HETATM   25  C02   D T 601      12.231  11.671  -2.380  1.00 53.85     0.112 C 
HETATM   26  C01   D T 601      12.247  12.961  -1.495  1.00 52.69     0.026 C 
ENDBRANCH  24  25
BRANCH  24  27
HETATM   27  C04   D T 601      14.674  11.655  -3.391  1.00 47.80     0.112 C 
HETATM   28  C05   D T 601      15.380  13.023  -3.600  1.00 44.89     0.026 C 
ENDBRANCH  24  27
ENDBRANCH  23  24
ENDBRANCH  22  23
ENDBRANCH  21  22
ENDBRANCH  18  21
ENDBRANCH  13  15
ENDBRANCH   1  13
BRANCH   8  29
HETATM   29  C26   D T 601      11.719  -2.223  -7.963  1.00 21.63     0.023 A 
HETATM   30  C27   D T 601      11.538  -3.172  -6.918  1.00 22.75     0.046 A 
HETATM   31 CL28   D T 601      10.972  -2.676  -5.407  1.00 22.59    -0.083 Cl
HETATM   32  C29   D T 601      11.860  -4.543  -7.090  1.00 24.08     0.025 A 
HETATM   33  C30   D T 601      12.330  -4.998  -8.343  1.00 25.63     0.003 A 
HETATM   34  C31   D T 601      12.492  -4.082  -9.391  1.00 25.41     0.025 A 
HETATM   35  C32   D T 601      12.191  -2.709  -9.204  1.00 23.77     0.046 A 
HETATM   36 CL33   D T 601      12.415  -1.652 -10.507  1.00 25.94    -0.083 Cl
ENDBRANCH   8  29
TORSDOF 9
ENDMDL
