MODEL 1
REMARK VINA RESULT:    -4.557      0.000      0.000
REMARK INTER + INTRA:          -8.379
REMARK INTER:                  -6.955
REMARK INTRA:                  -1.424
REMARK UNBOUND:                -1.424
REMARK  9 active torsions:
REMARK  status: ('A' for Active; 'I' for Inactive)
REMARK    1  A    between atoms: C02_2  and  N03_3 
REMARK    2  A    between atoms: N03_3  and  C04_4 
REMARK    3  A    between atoms: N03_3  and  C06_6 
REMARK    4  A    between atoms: C06_6  and  C07_7 
REMARK    5  A    between atoms: C07_7  and  O08_8 
REMARK    6  A    between atoms: O08_8  and  C09_9 
REMARK    7  A    between atoms: C12_12  and  N13_13 
REMARK    8  A    between atoms: N13_13  and  C14_14 
REMARK    9  A    between atoms: C21_21  and  C26_26 
ROOT
HETATM    1  C14   D T 601     -37.283  -3.936  18.910  1.00 17.92     0.728 A 
HETATM    2  N15   D T 601     -36.370  -4.622  18.195  1.00 19.07    -0.044 NA
HETATM    3  C16   D T 601     -35.505  -5.501  18.717  1.00 18.16     0.163 A 
HETATM    4  C17   D T 601     -35.532  -5.699  20.100  1.00 16.80     0.030 A 
HETATM    5  C18   D T 601     -36.445  -4.959  20.853  1.00 18.08     0.151 A 
HETATM    6  N19   D T 601     -37.291  -4.103  20.244  1.00 16.91    -0.074 NA
HETATM    7  C20   D T 601     -34.626  -6.600  20.693  1.00 17.65     0.034 A 
HETATM    8  C21   D T 601     -33.715  -7.311  19.895  1.00 18.53     0.047 A 
HETATM    9  C22   D T 601     -33.730  -7.066  18.500  1.00 19.48     0.260 A 
HETATM   10  O23   D T 601     -32.874  -7.701  17.848  1.00 21.52    -0.267 OA
HETATM   11  N24   D T 601     -34.620  -6.183  17.919  1.00 19.49    -0.301 N 
HETATM   12  C25   D T 601     -34.673  -5.937  16.487  1.00 20.07     0.161 C 
ENDROOT
BRANCH   1  13
HETATM   13  N13   D T 601     -38.121  -3.089  18.292  1.00 20.14    -0.188 N 
HETATM   14 1H13   D T 601     -38.127  -2.238  18.637  1.00 24.16     0.184 HD
BRANCH  13  15
HETATM   15  C12   D T 601     -38.971  -3.285  17.226  1.00 24.69     0.049 A 
HETATM   16  C11   D T 601     -38.577  -2.722  15.984  1.00 26.89     0.033 A 
HETATM   17  C10   D T 601     -39.378  -2.889  14.834  1.00 28.95     0.039 A 
HETATM   18  C09   D T 601     -40.572  -3.637  14.914  1.00 30.95     0.069 A 
HETATM   19  C35   D T 601     -40.950  -4.218  16.137  1.00 28.80     0.039 A 
HETATM   20  C34   D T 601     -40.158  -4.032  17.275  1.00 26.81     0.033 A 
BRANCH  18  21
HETATM   21  O08   D T 601     -41.337  -3.852  13.820  1.00 36.09    -0.350 OA
BRANCH  21  22
HETATM   22  C07   D T 601     -41.562  -5.249  13.486  1.00 42.63     0.195 C 
BRANCH  22  23
HETATM   23  C06   D T 601     -40.910  -5.550  12.099  1.00 46.85     0.143 C 
BRANCH  23  24
HETATM   24  N03   D T 601     -40.062  -6.802  12.078  1.00 51.06    -0.411 N 
BRANCH  24  25
HETATM   25  C02   D T 601     -38.538  -6.743  12.062  1.00 53.85     0.112 C 
HETATM   26  C01   D T 601     -37.828  -5.414  12.485  1.00 52.69     0.026 C 
ENDBRANCH  24  25
BRANCH  24  27
HETATM   27  C04   D T 601     -40.795  -8.111  12.206  1.00 47.80     0.112 C 
HETATM   28  C05   D T 601     -40.583  -8.957  13.492  1.00 44.89     0.026 C 
ENDBRANCH  24  27
ENDBRANCH  23  24
ENDBRANCH  22  23
ENDBRANCH  21  22
ENDBRANCH  18  21
ENDBRANCH  13  15
ENDBRANCH   1  13
BRANCH   8  29
HETATM   29  C26   D T 601     -32.797  -8.246  20.473  1.00 21.63     0.023 A 
HETATM   30  C27   D T 601     -33.106  -9.635  20.491  1.00 22.75     0.046 A 
HETATM   31 CL28   D T 601     -34.579 -10.188  19.880  1.00 22.59    -0.083 Cl
HETATM   32  C29   D T 601     -32.219 -10.590  21.053  1.00 24.08     0.025 A 
HETATM   33  C30   D T 601     -30.973 -10.166  21.568  1.00 25.63     0.003 A 
HETATM   34  C31   D T 601     -30.641  -8.804  21.536  1.00 25.41     0.025 A 
HETATM   35  C32   D T 601     -31.544  -7.854  20.996  1.00 23.77     0.046 A 
HETATM   36 CL33   D T 601     -31.088  -6.224  20.994  1.00 25.94    -0.083 Cl
ENDBRANCH   8  29
TORSDOF 9
ENDMDL
MODEL 2
REMARK VINA RESULT:    -4.545      0.105      1.532
REMARK INTER + INTRA:          -8.360
REMARK INTER:                  -6.888
REMARK INTRA:                  -1.472
REMARK UNBOUND:                -1.424
REMARK  9 active torsions:
REMARK  status: ('A' for Active; 'I' for Inactive)
REMARK    1  A    between atoms: C02_2  and  N03_3 
REMARK    2  A    between atoms: N03_3  and  C04_4 
REMARK    3  A    between atoms: N03_3  and  C06_6 
REMARK    4  A    between atoms: C06_6  and  C07_7 
REMARK    5  A    between atoms: C07_7  and  O08_8 
REMARK    6  A    between atoms: O08_8  and  C09_9 
REMARK    7  A    between atoms: C12_12  and  N13_13 
REMARK    8  A    between atoms: N13_13  and  C14_14 
REMARK    9  A    between atoms: C21_21  and  C26_26 
ROOT
HETATM    1  C14   D T 601     -37.324  -3.925  18.885  1.00 17.92     0.728 A 
HETATM    2  N15   D T 601     -36.400  -4.595  18.168  1.00 19.07    -0.044 NA
HETATM    3  C16   D T 601     -35.529  -5.470  18.687  1.00 18.16     0.163 A 
HETATM    4  C17   D T 601     -35.562  -5.682  20.068  1.00 16.80     0.030 A 
HETATM    5  C18   D T 601     -36.488  -4.959  20.822  1.00 18.08     0.151 A 
HETATM    6  N19   D T 601     -37.338  -4.105  20.216  1.00 16.91    -0.074 NA
HETATM    7  C20   D T 601     -34.650  -6.579  20.658  1.00 17.65     0.034 A 
HETATM    8  C21   D T 601     -33.728  -7.273  19.858  1.00 18.53     0.047 A 
HETATM    9  C22   D T 601     -33.737  -7.015  18.466  1.00 19.48     0.260 A 
HETATM   10  O23   D T 601     -32.870  -7.635  17.813  1.00 21.52    -0.267 OA
HETATM   11  N24   D T 601     -34.632  -6.136  17.888  1.00 19.49    -0.301 N 
HETATM   12  C25   D T 601     -34.680  -5.876  16.458  1.00 20.07     0.161 C 
ENDROOT
BRANCH   1  13
HETATM   13  N13   D T 601     -38.167  -3.080  18.269  1.00 20.14    -0.188 N 
HETATM   14 1H13   D T 601     -38.179  -2.231  18.618  1.00 24.16     0.184 HD
BRANCH  13  15
HETATM   15  C12   D T 601     -39.014  -3.276  17.201  1.00 24.69     0.049 A 
HETATM   16  C11   D T 601     -38.630  -2.691  15.967  1.00 26.89     0.033 A 
HETATM   17  C10   D T 601     -39.429  -2.856  14.815  1.00 28.95     0.039 A 
HETATM   18  C09   D T 601     -40.610  -3.626  14.885  1.00 30.95     0.069 A 
HETATM   19  C35   D T 601     -40.977  -4.229  16.101  1.00 28.80     0.039 A 
HETATM   20  C34   D T 601     -40.188  -4.044  17.241  1.00 26.81     0.033 A 
BRANCH  18  21
HETATM   21  O08   D T 601     -41.371  -3.839  13.789  1.00 36.09    -0.350 OA
BRANCH  21  22
HETATM   22  C07   D T 601     -41.620  -5.235  13.469  1.00 42.63     0.195 C 
BRANCH  22  23
HETATM   23  C06   D T 601     -41.082  -5.530  12.032  1.00 46.85     0.143 C 
BRANCH  23  24
HETATM   24  N03   D T 601     -40.188  -6.746  11.949  1.00 51.06    -0.411 N 
BRANCH  24  25
HETATM   25  C02   D T 601     -38.673  -6.626  11.824  1.00 53.85     0.112 C 
HETATM   26  C01   D T 601     -37.955  -5.401  12.480  1.00 52.69     0.026 C 
ENDBRANCH  24  25
BRANCH  24  27
HETATM   27  C04   D T 601     -40.857  -8.083  12.128  1.00 47.80     0.112 C 
HETATM   28  C05   D T 601     -40.585  -8.879  13.435  1.00 44.89     0.026 C 
ENDBRANCH  24  27
ENDBRANCH  23  24
ENDBRANCH  22  23
ENDBRANCH  21  22
ENDBRANCH  18  21
ENDBRANCH  13  15
ENDBRANCH   1  13
BRANCH   8  29
HETATM   29  C26   D T 601     -32.804  -8.205  20.433  1.00 21.63     0.023 A 
HETATM   30  C27   D T 601     -31.582  -7.746  20.999  1.00 22.75     0.046 A 
HETATM   31 CL28   D T 601     -31.184  -6.106  20.951  1.00 22.59    -0.083 Cl
HETATM   32  C29   D T 601     -30.644  -8.640  21.579  1.00 24.08     0.025 A 
HETATM   33  C30   D T 601     -30.945 -10.020  21.644  1.00 25.63     0.003 A 
HETATM   34  C31   D T 601     -32.156 -10.487  21.113  1.00 25.41     0.025 A 
HETATM   35  C32   D T 601     -33.075  -9.590  20.513  1.00 23.77     0.046 A 
HETATM   36 CL33   D T 601     -34.516 -10.218  19.884  1.00 25.94    -0.083 Cl
ENDBRANCH   8  29
TORSDOF 9
ENDMDL
MODEL 3
REMARK VINA RESULT:    -4.426      1.559      2.915
REMARK INTER + INTRA:          -8.178
REMARK INTER:                  -6.992
REMARK INTRA:                  -1.185
REMARK UNBOUND:                -1.424
REMARK  9 active torsions:
REMARK  status: ('A' for Active; 'I' for Inactive)
REMARK    1  A    between atoms: C02_2  and  N03_3 
REMARK    2  A    between atoms: N03_3  and  C04_4 
REMARK    3  A    between atoms: N03_3  and  C06_6 
REMARK    4  A    between atoms: C06_6  and  C07_7 
REMARK    5  A    between atoms: C07_7  and  O08_8 
REMARK    6  A    between atoms: O08_8  and  C09_9 
REMARK    7  A    between atoms: C12_12  and  N13_13 
REMARK    8  A    between atoms: N13_13  and  C14_14 
REMARK    9  A    between atoms: C21_21  and  C26_26 
ROOT
HETATM    1  C14   D T 601     -37.363  -3.899  18.825  1.00 17.92     0.728 A 
HETATM    2  N15   D T 601     -36.426  -4.565  18.122  1.00 19.07    -0.044 NA
HETATM    3  C16   D T 601     -35.569  -5.448  18.649  1.00 18.16     0.163 A 
HETATM    4  C17   D T 601     -35.631  -5.674  20.027  1.00 16.80     0.030 A 
HETATM    5  C18   D T 601     -36.570  -4.955  20.769  1.00 18.08     0.151 A 
HETATM    6  N19   D T 601     -37.406  -4.092  20.155  1.00 16.91    -0.074 NA
HETATM    7  C20   D T 601     -34.735  -6.580  20.626  1.00 17.65     0.034 A 
HETATM    8  C21   D T 601     -33.798  -7.269  19.840  1.00 18.53     0.047 A 
HETATM    9  C22   D T 601     -33.777  -6.997  18.450  1.00 19.48     0.260 A 
HETATM   10  O23   D T 601     -32.900  -7.613  17.809  1.00 21.52    -0.267 OA
HETATM   11  N24   D T 601     -34.658  -6.109  17.863  1.00 19.49    -0.301 N 
HETATM   12  C25   D T 601     -34.675  -5.835  16.434  1.00 20.07     0.161 C 
ENDROOT
BRANCH   1  13
HETATM   13  N13   D T 601     -38.190  -3.045  18.201  1.00 20.14    -0.188 N 
HETATM   14 1H13   D T 601     -38.211  -2.201  18.562  1.00 24.16     0.184 HD
BRANCH  13  15
HETATM   15  C12   D T 601     -39.010  -3.226  17.109  1.00 24.69     0.049 A 
HETATM   16  C11   D T 601     -38.573  -2.660  15.883  1.00 26.89     0.033 A 
HETATM   17  C10   D T 601     -39.342  -2.812  14.709  1.00 28.95     0.039 A 
HETATM   18  C09   D T 601     -40.545  -3.548  14.749  1.00 30.95     0.069 A 
HETATM   19  C35   D T 601     -40.965  -4.132  15.957  1.00 28.80     0.039 A 
HETATM   20  C34   D T 601     -40.206  -3.961  17.119  1.00 26.81     0.033 A 
BRANCH  18  21
HETATM   21  O08   D T 601     -41.279  -3.748  13.631  1.00 36.09    -0.350 OA
BRANCH  21  22
HETATM   22  C07   D T 601     -41.785  -5.100  13.456  1.00 42.63     0.195 C 
BRANCH  22  23
HETATM   23  C06   D T 601     -42.045  -5.352  11.937  1.00 46.85     0.143 C 
BRANCH  23  24
HETATM   24  N03   D T 601     -43.280  -4.663  11.403  1.00 51.06    -0.411 N 
BRANCH  24  25
HETATM   25  C02   D T 601     -44.684  -5.184  11.695  1.00 53.85     0.112 C 
HETATM   26  C01   D T 601     -45.898  -4.545  10.945  1.00 52.69     0.026 C 
ENDBRANCH  24  25
BRANCH  24  27
HETATM   27  C04   D T 601     -43.062  -3.362  10.677  1.00 47.80     0.112 C 
HETATM   28  C05   D T 601     -43.318  -2.034  11.443  1.00 44.89     0.026 C 
ENDBRANCH  24  27
ENDBRANCH  23  24
ENDBRANCH  22  23
ENDBRANCH  21  22
ENDBRANCH  18  21
ENDBRANCH  13  15
ENDBRANCH   1  13
BRANCH   8  29
HETATM   29  C26   D T 601     -32.890  -8.209  20.424  1.00 21.63     0.023 A 
HETATM   30  C27   D T 601     -31.668  -7.762  21.000  1.00 22.75     0.046 A 
HETATM   31 CL28   D T 601     -31.253  -6.127  20.954  1.00 22.59    -0.083 Cl
HETATM   32  C29   D T 601     -30.745  -8.666  21.590  1.00 24.08     0.025 A 
HETATM   33  C30   D T 601     -31.061 -10.042  21.654  1.00 25.63     0.003 A 
HETATM   34  C31   D T 601     -32.272 -10.497  21.113  1.00 25.41     0.025 A 
HETATM   35  C32   D T 601     -33.176  -9.591  20.503  1.00 23.77     0.046 A 
HETATM   36 CL33   D T 601     -34.617 -10.205  19.862  1.00 25.94    -0.083 Cl
ENDBRANCH   8  29
TORSDOF 9
ENDMDL
MODEL 4
REMARK VINA RESULT:    -4.371      3.868     10.051
REMARK INTER + INTRA:          -8.094
REMARK INTER:                  -6.815
REMARK INTRA:                  -1.279
REMARK UNBOUND:                -1.424
REMARK  9 active torsions:
REMARK  status: ('A' for Active; 'I' for Inactive)
REMARK    1  A    between atoms: C02_2  and  N03_3 
REMARK    2  A    between atoms: N03_3  and  C04_4 
REMARK    3  A    between atoms: N03_3  and  C06_6 
REMARK    4  A    between atoms: C06_6  and  C07_7 
REMARK    5  A    between atoms: C07_7  and  O08_8 
REMARK    6  A    between atoms: O08_8  and  C09_9 
REMARK    7  A    between atoms: C12_12  and  N13_13 
REMARK    8  A    between atoms: N13_13  and  C14_14 
REMARK    9  A    between atoms: C21_21  and  C26_26 
ROOT
HETATM    1  C14   D T 601     -38.778  -3.449  18.009  1.00 17.92     0.728 A 
HETATM    2  N15   D T 601     -38.499  -2.754  16.889  1.00 19.07    -0.044 NA
HETATM    3  C16   D T 601     -39.253  -2.770  15.781  1.00 18.16     0.163 A 
HETATM    4  C17   D T 601     -40.389  -3.583  15.777  1.00 16.80     0.030 A 
HETATM    5  C18   D T 601     -40.660  -4.340  16.919  1.00 18.08     0.151 A 
HETATM    6  N19   D T 601     -39.854  -4.254  17.997  1.00 16.91    -0.074 NA
HETATM    7  C20   D T 601     -41.198  -3.645  14.626  1.00 17.65     0.034 A 
HETATM    8  C21   D T 601     -40.877  -2.875  13.497  1.00 18.53     0.047 A 
HETATM    9  C22   D T 601     -39.711  -2.072  13.556  1.00 19.48     0.260 A 
HETATM   10  O23   D T 601     -39.458  -1.439  12.509  1.00 21.52    -0.267 OA
HETATM   11  N24   D T 601     -38.919  -2.012  14.686  1.00 19.49    -0.301 N 
HETATM   12  C25   D T 601     -37.734  -1.174  14.780  1.00 20.07     0.161 C 
ENDROOT
BRANCH   1  13
HETATM   13  N13   D T 601     -37.970  -3.353  19.076  1.00 20.14    -0.188 N 
HETATM   14 1H13   D T 601     -38.059  -2.574  19.554  1.00 24.16     0.184 HD
BRANCH  13  15
HETATM   15  C12   D T 601     -37.030  -4.229  19.572  1.00 24.69     0.049 A 
HETATM   16  C11   D T 601     -36.255  -4.940  18.619  1.00 26.89     0.033 A 
HETATM   17  C10   D T 601     -35.256  -5.846  19.038  1.00 28.95     0.039 A 
HETATM   18  C09   D T 601     -35.013  -6.034  20.415  1.00 30.95     0.069 A 
HETATM   19  C35   D T 601     -35.762  -5.310  21.361  1.00 28.80     0.039 A 
HETATM   20  C34   D T 601     -36.761  -4.428  20.936  1.00 26.81     0.033 A 
BRANCH  18  21
HETATM   21  O08   D T 601     -34.034  -6.860  20.846  1.00 36.09    -0.350 OA
BRANCH  21  22
HETATM   22  C07   D T 601     -34.485  -8.153  21.335  1.00 42.63     0.195 C 
BRANCH  22  23
HETATM   23  C06   D T 601     -33.537  -9.264  20.781  1.00 46.85     0.143 C 
BRANCH  23  24
HETATM   24  N03   D T 601     -34.167 -10.133  19.716  1.00 51.06    -0.411 N 
BRANCH  24  25
HETATM   25  C02   D T 601     -35.556  -9.842  19.155  1.00 53.85     0.112 C 
HETATM   26  C01   D T 601     -35.883 -10.267  17.686  1.00 52.69     0.026 C 
ENDBRANCH  24  25
BRANCH  24  27
HETATM   27  C04   D T 601     -33.302 -11.223  19.141  1.00 47.80     0.112 C 
HETATM   28  C05   D T 601     -33.645 -12.699  19.484  1.00 44.89     0.026 C 
ENDBRANCH  24  27
ENDBRANCH  23  24
ENDBRANCH  22  23
ENDBRANCH  21  22
ENDBRANCH  18  21
ENDBRANCH  13  15
ENDBRANCH   1  13
BRANCH   8  29
HETATM   29  C26   D T 601     -41.695  -2.907  12.322  1.00 21.63     0.023 A 
HETATM   30  C27   D T 601     -41.475  -3.894  11.321  1.00 22.75     0.046 A 
HETATM   31 CL28   D T 601     -40.213  -5.003  11.483  1.00 22.59    -0.083 Cl
HETATM   32  C29   D T 601     -42.268  -3.957  10.145  1.00 24.08     0.025 A 
HETATM   33  C30   D T 601     -43.338  -3.049   9.978  1.00 25.63     0.003 A 
HETATM   34  C31   D T 601     -43.586  -2.085  10.965  1.00 25.41     0.025 A 
HETATM   35  C32   D T 601     -42.772  -2.013  12.124  1.00 23.77     0.046 A 
HETATM   36 CL33   D T 601     -43.119  -0.821  13.276  1.00 25.94    -0.083 Cl
ENDBRANCH   8  29
TORSDOF 9
ENDMDL
MODEL 5
REMARK VINA RESULT:    -4.349      1.403      2.036
REMARK INTER + INTRA:          -8.060
REMARK INTER:                  -6.330
REMARK INTRA:                  -1.730
REMARK UNBOUND:                -1.424
REMARK  9 active torsions:
REMARK  status: ('A' for Active; 'I' for Inactive)
REMARK    1  A    between atoms: C02_2  and  N03_3 
REMARK    2  A    between atoms: N03_3  and  C04_4 
REMARK    3  A    between atoms: N03_3  and  C06_6 
REMARK    4  A    between atoms: C06_6  and  C07_7 
REMARK    5  A    between atoms: C07_7  and  O08_8 
REMARK    6  A    between atoms: O08_8  and  C09_9 
REMARK    7  A    between atoms: C12_12  and  N13_13 
REMARK    8  A    between atoms: N13_13  and  C14_14 
REMARK    9  A    between atoms: C21_21  and  C26_26 
ROOT
HETATM    1  C14   D T 601     -37.152  -3.897  19.632  1.00 17.92     0.728 A 
HETATM    2  N15   D T 601     -36.315  -4.541  18.795  1.00 19.07    -0.044 NA
HETATM    3  C16   D T 601     -35.437  -5.479  19.176  1.00 18.16     0.163 A 
HETATM    4  C17   D T 601     -35.366  -5.792  20.536  1.00 16.80     0.030 A 
HETATM    5  C18   D T 601     -36.200  -5.097  21.415  1.00 18.08     0.151 A 
HETATM    6  N19   D T 601     -37.065  -4.174  20.945  1.00 16.91    -0.074 NA
HETATM    7  C20   D T 601     -34.444  -6.758  20.982  1.00 17.65     0.034 A 
HETATM    8  C21   D T 601     -33.616  -7.420  20.061  1.00 18.53     0.047 A 
HETATM    9  C22   D T 601     -33.729  -7.060  18.696  1.00 19.48     0.260 A 
HETATM   10  O23   D T 601     -32.942  -7.656  17.930  1.00 21.52    -0.267 OA
HETATM   11  N24   D T 601     -34.635  -6.112  18.259  1.00 19.49    -0.301 N 
HETATM   12  C25   D T 601     -34.788  -5.746  16.860  1.00 20.07     0.161 C 
ENDROOT
BRANCH   1  13
HETATM   13  N13   D T 601     -38.009  -2.983  19.151  1.00 20.14    -0.188 N 
HETATM   14 1H13   D T 601     -38.089  -2.226  19.665  1.00 24.16     0.184 HD
BRANCH  13  15
HETATM   15  C12   D T 601     -38.788  -2.993  18.016  1.00 24.69     0.049 A 
HETATM   16  C11   D T 601     -39.699  -4.072  17.877  1.00 26.89     0.033 A 
HETATM   17  C10   D T 601     -40.550  -4.154  16.753  1.00 28.95     0.039 A 
HETATM   18  C09   D T 601     -40.508  -3.144  15.768  1.00 30.95     0.069 A 
HETATM   19  C35   D T 601     -39.625  -2.059  15.918  1.00 28.80     0.039 A 
HETATM   20  C34   D T 601     -38.774  -1.998  17.026  1.00 26.81     0.033 A 
BRANCH  18  21
HETATM   21  O08   D T 601     -41.341  -3.171  14.703  1.00 36.09    -0.350 OA
BRANCH  21  22
HETATM   22  C07   D T 601     -41.386  -4.434  13.983  1.00 42.63     0.195 C 
BRANCH  22  23
HETATM   23  C06   D T 601     -41.132  -4.162  12.467  1.00 46.85     0.143 C 
BRANCH  23  24
HETATM   24  N03   D T 601     -39.742  -3.652  12.159  1.00 51.06    -0.411 N 
BRANCH  24  25
HETATM   25  C02   D T 601     -39.509  -2.298  11.495  1.00 53.85     0.112 C 
HETATM   26  C01   D T 601     -39.772  -0.996  12.321  1.00 52.69     0.026 C 
ENDBRANCH  24  25
BRANCH  24  27
HETATM   27  C04   D T 601     -38.595  -4.489  12.658  1.00 47.80     0.112 C 
HETATM   28  C05   D T 601     -37.476  -3.794  13.483  1.00 44.89     0.026 C 
ENDBRANCH  24  27
ENDBRANCH  23  24
ENDBRANCH  22  23
ENDBRANCH  21  22
ENDBRANCH  18  21
ENDBRANCH  13  15
ENDBRANCH   1  13
BRANCH   8  29
HETATM   29  C26   D T 601     -32.684  -8.420  20.488  1.00 21.63     0.023 A 
HETATM   30  C27   D T 601     -33.026  -9.799  20.408  1.00 22.75     0.046 A 
HETATM   31 CL28   D T 601     -34.552 -10.268  19.858  1.00 22.59    -0.083 Cl
HETATM   32  C29   D T 601     -32.127 -10.817  20.820  1.00 24.08     0.025 A 
HETATM   33  C30   D T 601     -30.837 -10.464  21.280  1.00 25.63     0.003 A 
HETATM   34  C31   D T 601     -30.475  -9.111  21.342  1.00 25.41     0.025 A 
HETATM   35  C32   D T 601     -31.388  -8.099  20.953  1.00 23.77     0.046 A 
HETATM   36 CL33   D T 601     -30.892  -6.485  21.060  1.00 25.94    -0.083 Cl
ENDBRANCH   8  29
TORSDOF 9
ENDMDL
MODEL 6
REMARK VINA RESULT:    -4.328      3.673      9.803
REMARK INTER + INTRA:          -8.028
REMARK INTER:                  -6.292
REMARK INTRA:                  -1.737
REMARK UNBOUND:                -1.424
REMARK  9 active torsions:
REMARK  status: ('A' for Active; 'I' for Inactive)
REMARK    1  A    between atoms: C02_2  and  N03_3 
REMARK    2  A    between atoms: N03_3  and  C04_4 
REMARK    3  A    between atoms: N03_3  and  C06_6 
REMARK    4  A    between atoms: C06_6  and  C07_7 
REMARK    5  A    between atoms: C07_7  and  O08_8 
REMARK    6  A    between atoms: O08_8  and  C09_9 
REMARK    7  A    between atoms: C12_12  and  N13_13 
REMARK    8  A    between atoms: N13_13  and  C14_14 
REMARK    9  A    between atoms: C21_21  and  C26_26 
ROOT
HETATM    1  C14   D T 601     -38.527  -3.082  17.313  1.00 17.92     0.728 A 
HETATM    2  N15   D T 601     -38.322  -2.926  15.990  1.00 19.07    -0.044 NA
HETATM    3  C16   D T 601     -39.218  -3.234  15.043  1.00 18.16     0.163 A 
HETATM    4  C17   D T 601     -40.437  -3.779  15.452  1.00 16.80     0.030 A 
HETATM    5  C18   D T 601     -40.640  -3.985  16.818  1.00 18.08     0.151 A 
HETATM    6  N19   D T 601     -39.687  -3.634  17.707  1.00 16.91    -0.074 NA
HETATM    7  C20   D T 601     -41.400  -4.136  14.489  1.00 17.65     0.034 A 
HETATM    8  C21   D T 601     -41.144  -3.923  13.124  1.00 18.53     0.047 A 
HETATM    9  C22   D T 601     -39.890  -3.371  12.767  1.00 19.48     0.260 A 
HETATM   10  O23   D T 601     -39.706  -3.239  11.539  1.00 21.52    -0.267 OA
HETATM   11  N24   D T 601     -38.946  -3.021  13.714  1.00 19.49    -0.301 N 
HETATM   12  C25   D T 601     -37.663  -2.426  13.374  1.00 20.07     0.161 C 
ENDROOT
BRANCH   1  13
HETATM   13  N13   D T 601     -37.572  -2.726  18.186  1.00 20.14    -0.188 N 
HETATM   14 1H13   D T 601     -37.551  -1.830  18.385  1.00 24.16     0.184 HD
BRANCH  13  15
HETATM   15  C12   D T 601     -36.621  -3.483  18.833  1.00 24.69     0.049 A 
HETATM   16  C11   D T 601     -35.266  -3.106  18.640  1.00 26.89     0.033 A 
HETATM   17  C10   D T 601     -34.226  -3.814  19.279  1.00 28.95     0.039 A 
HETATM   18  C09   D T 601     -34.535  -4.894  20.134  1.00 30.95     0.069 A 
HETATM   19  C35   D T 601     -35.878  -5.252  20.348  1.00 28.80     0.039 A 
HETATM   20  C34   D T 601     -36.900  -4.555  19.695  1.00 26.81     0.033 A 
BRANCH  18  21
HETATM   21  O08   D T 601     -33.563  -5.563  20.794  1.00 36.09    -0.350 OA
BRANCH  21  22
HETATM   22  C07   D T 601     -33.874  -6.945  21.122  1.00 42.63     0.195 C 
BRANCH  22  23
HETATM   23  C06   D T 601     -33.210  -7.879  20.061  1.00 46.85     0.143 C 
BRANCH  23  24
HETATM   24  N03   D T 601     -34.127  -8.264  18.922  1.00 51.06    -0.411 N 
BRANCH  24  25
HETATM   25  C02   D T 601     -35.420  -9.040  19.155  1.00 53.85     0.112 C 
HETATM   26  C01   D T 601     -35.779 -10.219  18.192  1.00 52.69     0.026 C 
ENDBRANCH  24  25
BRANCH  24  27
HETATM   27  C04   D T 601     -33.767  -7.731  17.561  1.00 47.80     0.112 C 
HETATM   28  C05   D T 601     -34.676  -6.640  16.929  1.00 44.89     0.026 C 
ENDBRANCH  24  27
ENDBRANCH  23  24
ENDBRANCH  22  23
ENDBRANCH  21  22
ENDBRANCH  18  21
ENDBRANCH  13  15
ENDBRANCH   1  13
BRANCH   8  29
HETATM   29  C26   D T 601     -42.115  -4.260  12.128  1.00 21.63     0.023 A 
HETATM   30  C27   D T 601     -42.176  -5.581  11.603  1.00 22.75     0.046 A 
HETATM   31 CL28   D T 601     -41.069  -6.750  12.110  1.00 22.59    -0.083 Cl
HETATM   32  C29   D T 601     -43.127  -5.951  10.616  1.00 24.08     0.025 A 
HETATM   33  C30   D T 601     -44.074  -5.001  10.171  1.00 25.63     0.003 A 
HETATM   34  C31   D T 601     -44.046  -3.701  10.695  1.00 25.41     0.025 A 
HETATM   35  C32   D T 601     -43.076  -3.333  11.662  1.00 23.77     0.046 A 
HETATM   36 CL33   D T 601     -43.090  -1.746  12.249  1.00 25.94    -0.083 Cl
ENDBRANCH   8  29
TORSDOF 9
ENDMDL
MODEL 7
REMARK VINA RESULT:    -4.319      3.647      9.755
REMARK INTER + INTRA:          -8.015
REMARK INTER:                  -6.410
REMARK INTRA:                  -1.605
REMARK UNBOUND:                -1.424
REMARK  9 active torsions:
REMARK  status: ('A' for Active; 'I' for Inactive)
REMARK    1  A    between atoms: C02_2  and  N03_3 
REMARK    2  A    between atoms: N03_3  and  C04_4 
REMARK    3  A    between atoms: N03_3  and  C06_6 
REMARK    4  A    between atoms: C06_6  and  C07_7 
REMARK    5  A    between atoms: C07_7  and  O08_8 
REMARK    6  A    between atoms: O08_8  and  C09_9 
REMARK    7  A    between atoms: C12_12  and  N13_13 
REMARK    8  A    between atoms: N13_13  and  C14_14 
REMARK    9  A    between atoms: C21_21  and  C26_26 
ROOT
HETATM    1  C14   D T 601     -38.620  -3.016  17.281  1.00 17.92     0.728 A 
HETATM    2  N15   D T 601     -38.411  -2.887  15.956  1.00 19.07    -0.044 NA
HETATM    3  C16   D T 601     -39.282  -3.265  15.011  1.00 18.16     0.163 A 
HETATM    4  C17   D T 601     -40.478  -3.858  15.427  1.00 16.80     0.030 A 
HETATM    5  C18   D T 601     -40.683  -4.034  16.797  1.00 18.08     0.151 A 
HETATM    6  N19   D T 601     -39.756  -3.612  17.682  1.00 16.91    -0.074 NA
HETATM    7  C20   D T 601     -41.414  -4.288  14.467  1.00 17.65     0.034 A 
HETATM    8  C21   D T 601     -41.156  -4.101  13.099  1.00 18.53     0.047 A 
HETATM    9  C22   D T 601     -39.927  -3.500  12.736  1.00 19.48     0.260 A 
HETATM   10  O23   D T 601     -39.739  -3.393  11.505  1.00 21.52    -0.267 OA
HETATM   11  N24   D T 601     -39.010  -3.077  13.679  1.00 19.49    -0.301 N 
HETATM   12  C25   D T 601     -37.754  -2.431  13.331  1.00 20.07     0.161 C 
ENDROOT
BRANCH   1  13
HETATM   13  N13   D T 601     -37.691  -2.589  18.151  1.00 20.14    -0.188 N 
HETATM   14 1H13   D T 601     -37.736  -1.694  18.350  1.00 24.16     0.184 HD
BRANCH  13  15
HETATM   15  C12   D T 601     -36.684  -3.273  18.795  1.00 24.69     0.049 A 
HETATM   16  C11   D T 601     -37.066  -4.417  19.542  1.00 26.89     0.033 A 
HETATM   17  C10   D T 601     -36.098  -5.189  20.220  1.00 28.95     0.039 A 
HETATM   18  C09   D T 601     -34.734  -4.831  20.139  1.00 30.95     0.069 A 
HETATM   19  C35   D T 601     -34.351  -3.714  19.376  1.00 28.80     0.039 A 
HETATM   20  C34   D T 601     -35.321  -2.946  18.724  1.00 26.81     0.033 A 
BRANCH  18  21
HETATM   21  O08   D T 601     -33.780  -5.576  20.740  1.00 36.09    -0.350 OA
BRANCH  21  22
HETATM   22  C07   D T 601     -34.172  -6.937  21.071  1.00 42.63     0.195 C 
BRANCH  22  23
HETATM   23  C06   D T 601     -33.504  -7.918  20.056  1.00 46.85     0.143 C 
BRANCH  23  24
HETATM   24  N03   D T 601     -34.392  -8.294  18.891  1.00 51.06    -0.411 N 
BRANCH  24  25
HETATM   25  C02   D T 601     -34.083  -7.848  17.466  1.00 53.85     0.112 C 
HETATM   26  C01   D T 601     -34.722  -6.523  16.933  1.00 52.69     0.026 C 
ENDBRANCH  24  25
BRANCH  24  27
HETATM   27  C04   D T 601     -35.524  -9.241  19.189  1.00 47.80     0.112 C 
HETATM   28  C05   D T 601     -35.904 -10.301  18.118  1.00 44.89     0.026 C 
ENDBRANCH  24  27
ENDBRANCH  23  24
ENDBRANCH  22  23
ENDBRANCH  21  22
ENDBRANCH  18  21
ENDBRANCH  13  15
ENDBRANCH   1  13
BRANCH   8  29
HETATM   29  C26   D T 601     -42.102  -4.513  12.106  1.00 21.63     0.023 A 
HETATM   30  C27   D T 601     -43.046  -3.584  11.586  1.00 22.75     0.046 A 
HETATM   31 CL28   D T 601     -43.097  -2.003  12.175  1.00 22.59    -0.083 Cl
HETATM   32  C29   D T 601     -43.996  -3.956  10.599  1.00 24.08     0.025 A 
HETATM   33  C30   D T 601     -43.980  -5.269  10.077  1.00 25.63     0.003 A 
HETATM   34  C31   D T 601     -43.040  -6.191  10.559  1.00 25.41     0.025 A 
HETATM   35  C32   D T 601     -42.111  -5.818  11.563  1.00 23.77     0.046 A 
HETATM   36 CL33   D T 601     -41.008  -6.980  12.108  1.00 25.94    -0.083 Cl
ENDBRANCH   8  29
TORSDOF 9
ENDMDL
MODEL 8
REMARK VINA RESULT:    -4.146      1.793      2.938
REMARK INTER + INTRA:          -7.751
REMARK INTER:                  -6.250
REMARK INTRA:                  -1.501
REMARK UNBOUND:                -1.424
REMARK  9 active torsions:
REMARK  status: ('A' for Active; 'I' for Inactive)
REMARK    1  A    between atoms: C02_2  and  N03_3 
REMARK    2  A    between atoms: N03_3  and  C04_4 
REMARK    3  A    between atoms: N03_3  and  C06_6 
REMARK    4  A    between atoms: C06_6  and  C07_7 
REMARK    5  A    between atoms: C07_7  and  O08_8 
REMARK    6  A    between atoms: O08_8  and  C09_9 
REMARK    7  A    between atoms: C12_12  and  N13_13 
REMARK    8  A    between atoms: N13_13  and  C14_14 
REMARK    9  A    between atoms: C21_21  and  C26_26 
ROOT
HETATM    1  C14   D T 601     -37.824  -2.820  17.496  1.00 17.92     0.728 A 
HETATM    2  N15   D T 601     -36.752  -3.465  16.996  1.00 19.07    -0.044 NA
HETATM    3  C16   D T 601     -36.110  -4.462  17.619  1.00 18.16     0.163 A 
HETATM    4  C17   D T 601     -36.565  -4.841  18.884  1.00 16.80     0.030 A 
HETATM    5  C18   D T 601     -37.648  -4.148  19.428  1.00 18.08     0.151 A 
HETATM    6  N19   D T 601     -38.246  -3.163  18.726  1.00 16.91    -0.074 NA
HETATM    7  C20   D T 601     -35.907  -5.872  19.583  1.00 17.65     0.034 A 
HETATM    8  C21   D T 601     -34.812  -6.530  19.000  1.00 18.53     0.047 A 
HETATM    9  C22   D T 601     -34.391  -6.102  17.717  1.00 19.48     0.260 A 
HETATM   10  O23   D T 601     -33.392  -6.700  17.266  1.00 21.52    -0.267 OA
HETATM   11  N24   D T 601     -35.039  -5.091  17.032  1.00 19.49    -0.301 N 
HETATM   12  C25   D T 601     -34.644  -4.653  15.703  1.00 20.07     0.161 C 
ENDROOT
BRANCH   1  13
HETATM   13  N13   D T 601     -38.411  -1.844  16.787  1.00 20.14    -0.188 N 
HETATM   14 1H13   D T 601     -38.256  -0.996  17.103  1.00 24.16     0.184 HD
BRANCH  13  15
HETATM   15  C12   D T 601     -39.204  -1.904  15.663  1.00 24.69     0.049 A 
HETATM   16  C11   D T 601     -40.576  -1.582  15.833  1.00 26.89     0.033 A 
HETATM   17  C10   D T 601     -41.460  -1.599  14.732  1.00 28.95     0.039 A 
HETATM   18  C09   D T 601     -40.972  -1.921  13.447  1.00 30.95     0.069 A 
HETATM   19  C35   D T 601     -39.608  -2.213  13.272  1.00 28.80     0.039 A 
HETATM   20  C34   D T 601     -38.744  -2.210  14.373  1.00 26.81     0.033 A 
BRANCH  18  21
HETATM   21  O08   D T 601     -41.784  -1.902  12.366  1.00 36.09    -0.350 OA
BRANCH  21  22
HETATM   22  C07   D T 601     -41.475  -2.887  11.342  1.00 42.63     0.195 C 
BRANCH  22  23
HETATM   23  C06   D T 601     -42.695  -3.848  11.179  1.00 46.85     0.143 C 
BRANCH  23  24
HETATM   24  N03   D T 601     -42.435  -5.257  11.662  1.00 51.06    -0.411 N 
BRANCH  24  25
HETATM   25  C02   D T 601     -42.359  -6.438  10.699  1.00 53.85     0.112 C 
HETATM   26  C01   D T 601     -43.469  -6.597   9.609  1.00 52.69     0.026 C 
ENDBRANCH  24  25
BRANCH  24  27
HETATM   27  C04   D T 601     -42.124  -5.418  13.126  1.00 47.80     0.112 C 
HETATM   28  C05   D T 601     -40.686  -5.843  13.536  1.00 44.89     0.026 C 
ENDBRANCH  24  27
ENDBRANCH  23  24
ENDBRANCH  22  23
ENDBRANCH  21  22
ENDBRANCH  18  21
ENDBRANCH  13  15
ENDBRANCH   1  13
BRANCH   8  29
HETATM   29  C26   D T 601     -34.139  -7.594  19.682  1.00 21.63     0.023 A 
HETATM   30  C27   D T 601     -33.095  -7.306  20.606  1.00 22.75     0.046 A 
HETATM   31 CL28   D T 601     -32.603  -5.712  20.865  1.00 22.59    -0.083 Cl
HETATM   32  C29   D T 601     -32.407  -8.334  21.302  1.00 24.08     0.025 A 
HETATM   33  C30   D T 601     -32.795  -9.681  21.116  1.00 25.63     0.003 A 
HETATM   34  C31   D T 601     -33.838  -9.982  20.229  1.00 25.41     0.025 A 
HETATM   35  C32   D T 601     -34.502  -8.950  19.518  1.00 23.77     0.046 A 
HETATM   36 CL33   D T 601     -35.748  -9.380  18.456  1.00 25.94    -0.083 Cl
ENDBRANCH   8  29
TORSDOF 9
ENDMDL
MODEL 9
REMARK VINA RESULT:    -3.985      4.074      9.479
REMARK INTER + INTRA:          -7.505
REMARK INTER:                  -5.639
REMARK INTRA:                  -1.866
REMARK UNBOUND:                -1.424
REMARK  9 active torsions:
REMARK  status: ('A' for Active; 'I' for Inactive)
REMARK    1  A    between atoms: C02_2  and  N03_3 
REMARK    2  A    between atoms: N03_3  and  C04_4 
REMARK    3  A    between atoms: N03_3  and  C06_6 
REMARK    4  A    between atoms: C06_6  and  C07_7 
REMARK    5  A    between atoms: C07_7  and  O08_8 
REMARK    6  A    between atoms: O08_8  and  C09_9 
REMARK    7  A    between atoms: C12_12  and  N13_13 
REMARK    8  A    between atoms: N13_13  and  C14_14 
REMARK    9  A    between atoms: C21_21  and  C26_26 
ROOT
HETATM    1  C14   D T 601     -34.445  -4.430  19.319  1.00 17.92     0.728 A 
HETATM    2  N15   D T 601     -35.355  -3.476  19.599  1.00 19.07    -0.044 NA
HETATM    3  C16   D T 601     -36.275  -3.031  18.734  1.00 18.16     0.163 A 
HETATM    4  C17   D T 601     -36.275  -3.571  17.446  1.00 16.80     0.030 A 
HETATM    5  C18   D T 601     -35.307  -4.528  17.134  1.00 18.08     0.151 A 
HETATM    6  N19   D T 601     -34.423  -4.930  18.071  1.00 16.91    -0.074 NA
HETATM    7  C20   D T 601     -37.212  -3.117  16.498  1.00 17.65     0.034 A 
HETATM    8  C21   D T 601     -38.158  -2.142  16.854  1.00 18.53     0.047 A 
HETATM    9  C22   D T 601     -38.109  -1.627  18.173  1.00 19.48     0.260 A 
HETATM   10  O23   D T 601     -38.951  -0.737  18.419  1.00 21.52    -0.267 OA
HETATM   11  N24   D T 601     -37.189  -2.074  19.102  1.00 19.49    -0.301 N 
HETATM   12  C25   D T 601     -37.138  -1.581  20.469  1.00 20.07     0.161 C 
ENDROOT
BRANCH   1  13
HETATM   13  N13   D T 601     -33.574  -4.823  20.261  1.00 20.14    -0.188 N 
HETATM   14 1H13   D T 601     -33.166  -4.137  20.715  1.00 24.16     0.184 HD
BRANCH  13  15
HETATM   15  C12   D T 601     -33.191  -6.085  20.660  1.00 24.69     0.049 A 
HETATM   16  C11   D T 601     -34.229  -6.979  21.031  1.00 26.89     0.033 A 
HETATM   17  C10   D T 601     -33.930  -8.298  21.436  1.00 28.95     0.039 A 
HETATM   18  C09   D T 601     -32.589  -8.739  21.453  1.00 30.95     0.069 A 
HETATM   19  C35   D T 601     -31.562  -7.863  21.059  1.00 28.80     0.039 A 
HETATM   20  C34   D T 601     -31.867  -6.552  20.677  1.00 26.81     0.033 A 
BRANCH  18  21
HETATM   21  O08   D T 601     -32.276 -10.009  21.792  1.00 36.09    -0.350 OA
BRANCH  21  22
HETATM   22  C07   D T 601     -31.709 -10.814  20.722  1.00 42.63     0.195 C 
BRANCH  22  23
HETATM   23  C06   D T 601     -32.864 -11.555  19.977  1.00 46.85     0.143 C 
BRANCH  23  24
HETATM   24  N03   D T 601     -33.296 -10.883  18.694  1.00 51.06    -0.411 N 
BRANCH  24  25
HETATM   25  C02   D T 601     -34.742 -10.925  18.209  1.00 53.85     0.112 C 
HETATM   26  C01   D T 601     -35.778  -9.931  18.831  1.00 52.69     0.026 C 
ENDBRANCH  24  25
BRANCH  24  27
HETATM   27  C04   D T 601     -32.255 -10.059  17.984  1.00 47.80     0.112 C 
HETATM   28  C05   D T 601     -32.604  -8.594  17.601  1.00 44.89     0.026 C 
ENDBRANCH  24  27
ENDBRANCH  23  24
ENDBRANCH  22  23
ENDBRANCH  21  22
ENDBRANCH  18  21
ENDBRANCH  13  15
ENDBRANCH   1  13
BRANCH   8  29
HETATM   29  C26   D T 601     -39.133  -1.678  15.914  1.00 21.63     0.023 A 
HETATM   30  C27   D T 601     -40.378  -2.355  15.779  1.00 22.75     0.046 A 
HETATM   31 CL28   D T 601     -40.694  -3.743  16.687  1.00 22.59    -0.083 Cl
HETATM   32  C29   D T 601     -41.369  -1.923  14.860  1.00 24.08     0.025 A 
HETATM   33  C30   D T 601     -41.142  -0.761  14.087  1.00 25.63     0.003 A 
HETATM   34  C31   D T 601     -39.932  -0.066  14.224  1.00 25.41     0.025 A 
HETATM   35  C32   D T 601     -38.937  -0.520  15.127  1.00 23.77     0.046 A 
HETATM   36 CL33   D T 601     -37.495   0.358  15.240  1.00 25.94    -0.083 Cl
ENDBRANCH   8  29
TORSDOF 9
ENDMDL
