MODEL 1
REMARK VINA RESULT:    -7.807      0.000      0.000
REMARK INTER + INTRA:         -12.899
REMARK INTER:                 -11.914
REMARK INTRA:                  -0.985
REMARK UNBOUND:                -0.985
REMARK  9 active torsions:
REMARK  status: ('A' for Active; 'I' for Inactive)
REMARK    1  A    between atoms: C02_2  and  N03_3 
REMARK    2  A    between atoms: N03_3  and  C04_4 
REMARK    3  A    between atoms: N03_3  and  C06_6 
REMARK    4  A    between atoms: C06_6  and  C07_7 
REMARK    5  A    between atoms: C07_7  and  O08_8 
REMARK    6  A    between atoms: O08_8  and  C09_9 
REMARK    7  A    between atoms: C12_12  and  N13_13 
REMARK    8  A    between atoms: N13_13  and  C14_14 
REMARK    9  A    between atoms: C21_21  and  C26_26 
ROOT
HETATM    1  C14   D T 601       4.345  14.828  -0.939  1.00 17.92     0.728 A 
HETATM    2  N15   D T 601       5.209  13.796  -0.863  1.00 19.07    -0.044 NA
HETATM    3  C16   D T 601       5.110  12.788   0.014  1.00 18.16     0.163 A 
HETATM    4  C17   D T 601       4.055  12.822   0.928  1.00 16.80     0.030 A 
HETATM    5  C18   D T 601       3.180  13.909   0.884  1.00 18.08     0.151 A 
HETATM    6  N19   D T 601       3.346  14.877  -0.041  1.00 16.91    -0.074 NA
HETATM    7  C20   D T 601       3.924  11.792   1.882  1.00 17.65     0.034 A 
HETATM    8  C21   D T 601       4.837  10.726   1.895  1.00 18.53     0.047 A 
HETATM    9  C22   D T 601       5.890  10.746   0.948  1.00 19.48     0.260 A 
HETATM   10  O23   D T 601       6.690   9.792   1.032  1.00 21.52    -0.267 OA
HETATM   11  N24   D T 601       6.016  11.758   0.013  1.00 19.49    -0.301 N 
HETATM   12  C25   D T 601       7.071  11.786  -0.987  1.00 20.07     0.161 C 
ENDROOT
BRANCH   1  13
HETATM   13  N13   D T 601       4.520  15.782  -1.866  1.00 20.14    -0.188 N 
HETATM   14 1H13   D T 601       3.839  16.395  -1.916  1.00 24.16     0.184 HD
BRANCH  13  15
HETATM   15  C12   D T 601       5.552  15.993  -2.754  1.00 24.69     0.049 A 
HETATM   16  C11   D T 601       6.402  17.100  -2.492  1.00 26.89     0.033 A 
HETATM   17  C10   D T 601       7.497  17.380  -3.339  1.00 28.95     0.039 A 
HETATM   18  C09   D T 601       7.761  16.542  -4.444  1.00 30.95     0.069 A 
HETATM   19  C35   D T 601       6.936  15.428  -4.688  1.00 28.80     0.039 A 
HETATM   20  C34   D T 601       5.843  15.170  -3.853  1.00 26.81     0.033 A 
BRANCH  18  21
HETATM   21  O08   D T 601       8.827  16.758  -5.245  1.00 36.09    -0.350 OA
BRANCH  21  22
HETATM   22  C07   D T 601       9.634  15.582  -5.534  1.00 42.63     0.195 C 
BRANCH  22  23
HETATM   23  C06   D T 601      10.825  15.524  -4.526  1.00 46.85     0.143 C 
BRANCH  23  24
HETATM   24  N03   D T 601      10.994  14.181  -3.853  1.00 51.06    -0.411 N 
BRANCH  24  25
HETATM   25  C02   D T 601      12.307  13.407  -3.915  1.00 53.85     0.112 C 
HETATM   26  C01   D T 601      13.278  13.663  -5.114  1.00 52.69     0.026 C 
ENDBRANCH  24  25
BRANCH  24  27
HETATM   27  C04   D T 601       9.842  13.705  -3.008  1.00 47.80     0.112 C 
HETATM   28  C05   D T 601       9.420  14.560  -1.781  1.00 44.89     0.026 C 
ENDBRANCH  24  27
ENDBRANCH  23  24
ENDBRANCH  22  23
ENDBRANCH  21  22
ENDBRANCH  18  21
ENDBRANCH  13  15
ENDBRANCH   1  13
BRANCH   8  29
HETATM   29  C26   D T 601       4.713   9.658   2.841  1.00 21.63     0.023 A 
HETATM   30  C27   D T 601       3.621   8.750   2.758  1.00 22.75     0.046 A 
HETATM   31 CL28   D T 601       2.432   8.954   1.577  1.00 22.59    -0.083 Cl
HETATM   32  C29   D T 601       3.468   7.679   3.676  1.00 24.08     0.025 A 
HETATM   33  C30   D T 601       4.447   7.471   4.674  1.00 25.63     0.003 A 
HETATM   34  C31   D T 601       5.543   8.341   4.756  1.00 25.41     0.025 A 
HETATM   35  C32   D T 601       5.675   9.424   3.850  1.00 23.77     0.046 A 
HETATM   36 CL33   D T 601       7.018  10.442   4.007  1.00 25.94    -0.083 Cl
ENDBRANCH   8  29
TORSDOF 9
ENDMDL
MODEL 2
REMARK VINA RESULT:    -7.789      2.169      3.584
REMARK INTER + INTRA:         -12.872
REMARK INTER:                 -12.069
REMARK INTRA:                  -0.804
REMARK UNBOUND:                -0.985
REMARK  9 active torsions:
REMARK  status: ('A' for Active; 'I' for Inactive)
REMARK    1  A    between atoms: C02_2  and  N03_3 
REMARK    2  A    between atoms: N03_3  and  C04_4 
REMARK    3  A    between atoms: N03_3  and  C06_6 
REMARK    4  A    between atoms: C06_6  and  C07_7 
REMARK    5  A    between atoms: C07_7  and  O08_8 
REMARK    6  A    between atoms: O08_8  and  C09_9 
REMARK    7  A    between atoms: C12_12  and  N13_13 
REMARK    8  A    between atoms: N13_13  and  C14_14 
REMARK    9  A    between atoms: C21_21  and  C26_26 
ROOT
HETATM    1  C14   D T 601       4.307  14.827  -0.929  1.00 17.92     0.728 A 
HETATM    2  N15   D T 601       5.181  13.802  -0.880  1.00 19.07    -0.044 NA
HETATM    3  C16   D T 601       5.125  12.802   0.011  1.00 18.16     0.163 A 
HETATM    4  C17   D T 601       4.111  12.840   0.970  1.00 16.80     0.030 A 
HETATM    5  C18   D T 601       3.228  13.921   0.952  1.00 18.08     0.151 A 
HETATM    6  N19   D T 601       3.348  14.880   0.011  1.00 16.91    -0.074 NA
HETATM    7  C20   D T 601       4.027  11.819   1.938  1.00 17.65     0.034 A 
HETATM    8  C21   D T 601       4.947  10.758   1.923  1.00 18.53     0.047 A 
HETATM    9  C22   D T 601       5.958  10.774   0.930  1.00 19.48     0.260 A 
HETATM   10  O23   D T 601       6.766   9.825   0.990  1.00 21.52    -0.267 OA
HETATM   11  N24   D T 601       6.037  11.777  -0.019  1.00 19.49    -0.301 N 
HETATM   12  C25   D T 601       7.048  11.800  -1.065  1.00 20.07     0.161 C 
ENDROOT
BRANCH   1  13
HETATM   13  N13   D T 601       4.436  15.773  -1.872  1.00 20.14    -0.188 N 
HETATM   14 1H13   D T 601       3.679  16.269  -2.021  1.00 24.16     0.184 HD
BRANCH  13  15
HETATM   15  C12   D T 601       5.517  16.121  -2.652  1.00 24.69     0.049 A 
HETATM   16  C11   D T 601       5.823  15.259  -3.738  1.00 26.89     0.033 A 
HETATM   17  C10   D T 601       6.901  15.549  -4.602  1.00 28.95     0.039 A 
HETATM   18  C09   D T 601       7.671  16.715  -4.397  1.00 30.95     0.069 A 
HETATM   19  C35   D T 601       7.352  17.584  -3.338  1.00 28.80     0.039 A 
HETATM   20  C34   D T 601       6.292  17.279  -2.476  1.00 26.81     0.033 A 
BRANCH  18  21
HETATM   21  O08   D T 601       8.681  17.041  -5.233  1.00 36.09    -0.350 OA
BRANCH  21  22
HETATM   22  C07   D T 601       8.501  18.287  -5.964  1.00 42.63     0.195 C 
BRANCH  22  23
HETATM   23  C06   D T 601       7.753  17.988  -7.300  1.00 46.85     0.143 C 
BRANCH  23  24
HETATM   24  N03   D T 601       6.542  18.863  -7.534  1.00 51.06    -0.411 N 
BRANCH  24  25
HETATM   25  C02   D T 601       6.195  19.407  -8.917  1.00 53.85     0.112 C 
HETATM   26  C01   D T 601       4.739  19.911  -9.185  1.00 52.69     0.026 C 
ENDBRANCH  24  25
BRANCH  24  27
HETATM   27  C04   D T 601       5.624  19.067  -6.358  1.00 47.80     0.112 C 
HETATM   28  C05   D T 601       4.574  17.968  -6.040  1.00 44.89     0.026 C 
ENDBRANCH  24  27
ENDBRANCH  23  24
ENDBRANCH  22  23
ENDBRANCH  21  22
ENDBRANCH  18  21
ENDBRANCH  13  15
ENDBRANCH   1  13
BRANCH   8  29
HETATM   29  C26   D T 601       4.871   9.699   2.884  1.00 21.63     0.023 A 
HETATM   30  C27   D T 601       3.788   8.776   2.850  1.00 22.75     0.046 A 
HETATM   31 CL28   D T 601       2.555   8.952   1.710  1.00 22.59    -0.083 Cl
HETATM   32  C29   D T 601       3.682   7.714   3.784  1.00 24.08     0.025 A 
HETATM   33  C30   D T 601       4.698   7.529   4.749  1.00 25.63     0.003 A 
HETATM   34  C31   D T 601       5.785   8.414   4.782  1.00 25.41     0.025 A 
HETATM   35  C32   D T 601       5.871   9.488   3.860  1.00 23.77     0.046 A 
HETATM   36 CL33   D T 601       7.205  10.525   3.958  1.00 25.94    -0.083 Cl
ENDBRANCH   8  29
TORSDOF 9
ENDMDL
MODEL 3
REMARK VINA RESULT:    -7.584      0.703      2.175
REMARK INTER + INTRA:         -12.559
REMARK INTER:                 -11.690
REMARK INTRA:                  -0.869
REMARK UNBOUND:                -0.985
REMARK  9 active torsions:
REMARK  status: ('A' for Active; 'I' for Inactive)
REMARK    1  A    between atoms: C02_2  and  N03_3 
REMARK    2  A    between atoms: N03_3  and  C04_4 
REMARK    3  A    between atoms: N03_3  and  C06_6 
REMARK    4  A    between atoms: C06_6  and  C07_7 
REMARK    5  A    between atoms: C07_7  and  O08_8 
REMARK    6  A    between atoms: O08_8  and  C09_9 
REMARK    7  A    between atoms: C12_12  and  N13_13 
REMARK    8  A    between atoms: N13_13  and  C14_14 
REMARK    9  A    between atoms: C21_21  and  C26_26 
ROOT
HETATM    1  C14   D T 601       4.321  14.913  -0.944  1.00 17.92     0.728 A 
HETATM    2  N15   D T 601       5.195  13.887  -0.908  1.00 19.07    -0.044 NA
HETATM    3  C16   D T 601       5.135  12.872  -0.036  1.00 18.16     0.163 A 
HETATM    4  C17   D T 601       4.115  12.892   0.917  1.00 16.80     0.030 A 
HETATM    5  C18   D T 601       3.232  13.973   0.914  1.00 18.08     0.151 A 
HETATM    6  N19   D T 601       3.356  14.949  -0.009  1.00 16.91    -0.074 NA
HETATM    7  C20   D T 601       4.026  11.853   1.866  1.00 17.65     0.034 A 
HETATM    8  C21   D T 601       4.947  10.793   1.837  1.00 18.53     0.047 A 
HETATM    9  C22   D T 601       5.963  10.828   0.851  1.00 19.48     0.260 A 
HETATM   10  O23   D T 601       6.771   9.878   0.898  1.00 21.52    -0.267 OA
HETATM   11  N24   D T 601       6.047  11.848  -0.079  1.00 19.49    -0.301 N 
HETATM   12  C25   D T 601       7.064  11.890  -1.118  1.00 20.07     0.161 C 
ENDROOT
BRANCH   1  13
HETATM   13  N13   D T 601       4.456  15.877  -1.869  1.00 20.14    -0.188 N 
HETATM   14 1H13   D T 601       3.721  16.419  -1.965  1.00 24.16     0.184 HD
BRANCH  13  15
HETATM   15  C12   D T 601       5.512  16.185  -2.697  1.00 24.69     0.049 A 
HETATM   16  C11   D T 601       6.684  16.689  -2.075  1.00 26.89     0.033 A 
HETATM   17  C10   D T 601       7.823  17.013  -2.845  1.00 28.95     0.039 A 
HETATM   18  C09   D T 601       7.804  16.816  -4.243  1.00 30.95     0.069 A 
HETATM   19  C35   D T 601       6.653  16.290  -4.857  1.00 28.80     0.039 A 
HETATM   20  C34   D T 601       5.523  15.989  -4.088  1.00 26.81     0.033 A 
BRANCH  18  21
HETATM   21  O08   D T 601       8.893  17.075  -4.999  1.00 36.09    -0.350 OA
BRANCH  21  22
HETATM   22  C07   D T 601       8.905  16.435  -6.306  1.00 42.63     0.195 C 
BRANCH  22  23
HETATM   23  C06   D T 601       9.578  15.032  -6.178  1.00 46.85     0.143 C 
BRANCH  23  24
HETATM   24  N03   D T 601      10.806  15.019  -5.296  1.00 51.06    -0.411 N 
BRANCH  24  25
HETATM   25  C02   D T 601      10.798  14.379  -3.910  1.00 53.85     0.112 C 
HETATM   26  C01   D T 601       9.466  13.759  -3.373  1.00 52.69     0.026 C 
ENDBRANCH  24  25
BRANCH  24  27
HETATM   27  C04   D T 601      12.075  15.555  -5.904  1.00 47.80     0.112 C 
HETATM   28  C05   D T 601      13.274  14.585  -6.090  1.00 44.89     0.026 C 
ENDBRANCH  24  27
ENDBRANCH  23  24
ENDBRANCH  22  23
ENDBRANCH  21  22
ENDBRANCH  18  21
ENDBRANCH  13  15
ENDBRANCH   1  13
BRANCH   8  29
HETATM   29  C26   D T 601       4.864   9.718   2.778  1.00 21.63     0.023 A 
HETATM   30  C27   D T 601       5.842   9.584   3.803  1.00 22.75     0.046 A 
HETATM   31 CL28   D T 601       7.140  10.661   3.886  1.00 22.59    -0.083 Cl
HETATM   32  C29   D T 601       5.790   8.533   4.754  1.00 24.08     0.025 A 
HETATM   33  C30   D T 601       4.715   7.616   4.722  1.00 25.63     0.003 A 
HETATM   34  C31   D T 601       3.728   7.746   3.735  1.00 25.41     0.025 A 
HETATM   35  C32   D T 601       3.802   8.785   2.773  1.00 23.77     0.046 A 
HETATM   36 CL33   D T 601       2.583   8.883   1.603  1.00 25.94    -0.083 Cl
ENDBRANCH   8  29
TORSDOF 9
ENDMDL
MODEL 4
REMARK VINA RESULT:    -7.332      5.831     10.851
REMARK INTER + INTRA:         -12.175
REMARK INTER:                 -12.012
REMARK INTRA:                  -0.163
REMARK UNBOUND:                -0.985
REMARK  9 active torsions:
REMARK  status: ('A' for Active; 'I' for Inactive)
REMARK    1  A    between atoms: C02_2  and  N03_3 
REMARK    2  A    between atoms: N03_3  and  C04_4 
REMARK    3  A    between atoms: N03_3  and  C06_6 
REMARK    4  A    between atoms: C06_6  and  C07_7 
REMARK    5  A    between atoms: C07_7  and  O08_8 
REMARK    6  A    between atoms: O08_8  and  C09_9 
REMARK    7  A    between atoms: C12_12  and  N13_13 
REMARK    8  A    between atoms: N13_13  and  C14_14 
REMARK    9  A    between atoms: C21_21  and  C26_26 
ROOT
HETATM    1  C14   D T 601       8.997   9.038   2.810  1.00 17.92     0.728 A 
HETATM    2  N15   D T 601       7.843   8.891   3.491  1.00 19.07    -0.044 NA
HETATM    3  C16   D T 601       6.645   9.294   3.046  1.00 18.16     0.163 A 
HETATM    4  C17   D T 601       6.593   9.934   1.806  1.00 16.80     0.030 A 
HETATM    5  C18   D T 601       7.790  10.130   1.115  1.00 18.08     0.151 A 
HETATM    6  N19   D T 601       8.953   9.681   1.630  1.00 16.91    -0.074 NA
HETATM    7  C20   D T 601       5.356  10.393   1.309  1.00 17.65     0.034 A 
HETATM    8  C21   D T 601       4.180  10.184   2.048  1.00 18.53     0.047 A 
HETATM    9  C22   D T 601       4.294   9.533   3.300  1.00 19.48     0.260 A 
HETATM   10  O23   D T 601       3.221   9.409   3.927  1.00 21.52    -0.267 OA
HETATM   11  N24   D T 601       5.508   9.085   3.786  1.00 19.49    -0.301 N 
HETATM   12  C25   D T 601       5.646   8.389   5.056  1.00 20.07     0.161 C 
ENDROOT
BRANCH   1  13
HETATM   13  N13   D T 601      10.147   8.585   3.334  1.00 20.14    -0.188 N 
HETATM   14 1H13   D T 601      10.899   9.019   3.037  1.00 24.16     0.184 HD
BRANCH  13  15
HETATM   15  C12   D T 601      10.384   7.575   4.240  1.00 24.69     0.049 A 
HETATM   16  C11   D T 601      10.300   6.245   3.750  1.00 26.89     0.033 A 
HETATM   17  C10   D T 601      10.546   5.149   4.605  1.00 28.95     0.039 A 
HETATM   18  C09   D T 601      10.898   5.375   5.953  1.00 30.95     0.069 A 
HETATM   19  C35   D T 601      11.009   6.693   6.433  1.00 28.80     0.039 A 
HETATM   20  C34   D T 601      10.745   7.773   5.583  1.00 26.81     0.033 A 
BRANCH  18  21
HETATM   21  O08   D T 601      11.183   4.347   6.783  1.00 36.09    -0.350 OA
BRANCH  21  22
HETATM   22  C07   D T 601      12.500   4.397   7.399  1.00 42.63     0.195 C 
BRANCH  22  23
HETATM   23  C06   D T 601      12.366   4.039   8.912  1.00 46.85     0.143 C 
BRANCH  23  24
HETATM   24  N03   D T 601      11.510   5.007   9.698  1.00 51.06    -0.411 N 
BRANCH  24  25
HETATM   25  C02   D T 601      10.196   4.581  10.345  1.00 53.85     0.112 C 
HETATM   26  C01   D T 601       8.931   4.410   9.442  1.00 52.69     0.026 C 
ENDBRANCH  24  25
BRANCH  24  27
HETATM   27  C04   D T 601      12.084   6.382   9.919  1.00 47.80     0.112 C 
HETATM   28  C05   D T 601      12.513   6.782  11.358  1.00 44.89     0.026 C 
ENDBRANCH  24  27
ENDBRANCH  23  24
ENDBRANCH  22  23
ENDBRANCH  21  22
ENDBRANCH  18  21
ENDBRANCH  13  15
ENDBRANCH   1  13
BRANCH   8  29
HETATM   29  C26   D T 601       2.910  10.623   1.554  1.00 21.63     0.023 A 
HETATM   30  C27   D T 601       2.706  11.988   1.210  1.00 22.75     0.046 A 
HETATM   31 CL28   D T 601       3.943  13.116   1.432  1.00 22.59    -0.083 Cl
HETATM   32  C29   D T 601       1.462  12.457   0.715  1.00 24.08     0.025 A 
HETATM   33  C30   D T 601       0.404  11.543   0.508  1.00 25.63     0.003 A 
HETATM   34  C31   D T 601       0.594  10.189   0.818  1.00 25.41     0.025 A 
HETATM   35  C32   D T 601       1.833   9.733   1.336  1.00 23.77     0.046 A 
HETATM   36 CL33   D T 601       1.995   8.088   1.697  1.00 25.94    -0.083 Cl
ENDBRANCH   8  29
TORSDOF 9
ENDMDL
MODEL 5
REMARK VINA RESULT:    -7.235      5.798     10.836
REMARK INTER + INTRA:         -12.027
REMARK INTER:                 -11.966
REMARK INTRA:                  -0.061
REMARK UNBOUND:                -0.985
REMARK  9 active torsions:
REMARK  status: ('A' for Active; 'I' for Inactive)
REMARK    1  A    between atoms: C02_2  and  N03_3 
REMARK    2  A    between atoms: N03_3  and  C04_4 
REMARK    3  A    between atoms: N03_3  and  C06_6 
REMARK    4  A    between atoms: C06_6  and  C07_7 
REMARK    5  A    between atoms: C07_7  and  O08_8 
REMARK    6  A    between atoms: O08_8  and  C09_9 
REMARK    7  A    between atoms: C12_12  and  N13_13 
REMARK    8  A    between atoms: N13_13  and  C14_14 
REMARK    9  A    between atoms: C21_21  and  C26_26 
ROOT
HETATM    1  C14   D T 601       9.110   9.094   2.820  1.00 17.92     0.728 A 
HETATM    2  N15   D T 601       7.953   8.972   3.501  1.00 19.07    -0.044 NA
HETATM    3  C16   D T 601       6.758   9.366   3.041  1.00 18.16     0.163 A 
HETATM    4  C17   D T 601       6.712   9.968   1.781  1.00 16.80     0.030 A 
HETATM    5  C18   D T 601       7.911  10.137   1.088  1.00 18.08     0.151 A 
HETATM    6  N19   D T 601       9.071   9.699   1.620  1.00 16.91    -0.074 NA
HETATM    7  C20   D T 601       5.478  10.415   1.266  1.00 17.65     0.034 A 
HETATM    8  C21   D T 601       4.299  10.235   2.008  1.00 18.53     0.047 A 
HETATM    9  C22   D T 601       4.407   9.622   3.280  1.00 19.48     0.260 A 
HETATM   10  O23   D T 601       3.332   9.522   3.907  1.00 21.52    -0.267 OA
HETATM   11  N24   D T 601       5.618   9.184   3.784  1.00 19.49    -0.301 N 
HETATM   12  C25   D T 601       5.750   8.528   5.074  1.00 20.07     0.161 C 
ENDROOT
BRANCH   1  13
HETATM   13  N13   D T 601      10.256   8.652   3.361  1.00 20.14    -0.188 N 
HETATM   14 1H13   D T 601      10.988   9.176   3.183  1.00 24.16     0.184 HD
BRANCH  13  15
HETATM   15  C12   D T 601      10.514   7.544   4.137  1.00 24.69     0.049 A 
HETATM   16  C11   D T 601      11.051   7.781   5.429  1.00 26.89     0.033 A 
HETATM   17  C10   D T 601      11.328   6.705   6.300  1.00 28.95     0.039 A 
HETATM   18  C09   D T 601      11.052   5.382   5.890  1.00 30.95     0.069 A 
HETATM   19  C35   D T 601      10.494   5.148   4.620  1.00 28.80     0.039 A 
HETATM   20  C34   D T 601      10.240   6.220   3.758  1.00 26.81     0.033 A 
BRANCH  18  21
HETATM   21  O08   D T 601      11.264   4.336   6.719  1.00 36.09    -0.350 OA
BRANCH  21  22
HETATM   22  C07   D T 601      12.384   4.489   7.635  1.00 42.63     0.195 C 
BRANCH  22  23
HETATM   23  C06   D T 601      12.050   3.755   8.971  1.00 46.85     0.143 C 
BRANCH  23  24
HETATM   24  N03   D T 601      11.042   4.480   9.834  1.00 51.06    -0.411 N 
BRANCH  24  25
HETATM   25  C02   D T 601      11.350   5.831  10.473  1.00 53.85     0.112 C 
HETATM   26  C01   D T 601      11.003   6.049  11.982  1.00 52.69     0.026 C 
ENDBRANCH  24  25
BRANCH  24  27
HETATM   27  C04   D T 601       9.671   3.864   9.928  1.00 47.80     0.112 C 
HETATM   28  C05   D T 601       8.501   4.541   9.161  1.00 44.89     0.026 C 
ENDBRANCH  24  27
ENDBRANCH  23  24
ENDBRANCH  22  23
ENDBRANCH  21  22
ENDBRANCH  18  21
ENDBRANCH  13  15
ENDBRANCH   1  13
BRANCH   8  29
HETATM   29  C26   D T 601       3.032  10.663   1.497  1.00 21.63     0.023 A 
HETATM   30  C27   D T 601       1.967   9.732   1.348  1.00 22.75     0.046 A 
HETATM   31 CL28   D T 601       2.202   8.102   1.721  1.00 22.59    -0.083 Cl
HETATM   32  C29   D T 601       0.697  10.122   0.848  1.00 24.08     0.025 A 
HETATM   33  C30   D T 601       0.459  11.478   0.532  1.00 25.63     0.003 A 
HETATM   34  C31   D T 601       1.489  12.415   0.696  1.00 25.41     0.025 A 
HETATM   35  C32   D T 601       2.762  12.012   1.172  1.00 23.77     0.046 A 
HETATM   36 CL33   D T 601       3.966  13.191   1.341  1.00 25.94    -0.083 Cl
ENDBRANCH   8  29
TORSDOF 9
ENDMDL
MODEL 6
REMARK VINA RESULT:    -7.062      6.213      9.750
REMARK INTER + INTRA:         -11.763
REMARK INTER:                 -10.395
REMARK INTRA:                  -1.368
REMARK UNBOUND:                -0.985
REMARK  9 active torsions:
REMARK  status: ('A' for Active; 'I' for Inactive)
REMARK    1  A    between atoms: C02_2  and  N03_3 
REMARK    2  A    between atoms: N03_3  and  C04_4 
REMARK    3  A    between atoms: N03_3  and  C06_6 
REMARK    4  A    between atoms: C06_6  and  C07_7 
REMARK    5  A    between atoms: C07_7  and  O08_8 
REMARK    6  A    between atoms: O08_8  and  C09_9 
REMARK    7  A    between atoms: C12_12  and  N13_13 
REMARK    8  A    between atoms: N13_13  and  C14_14 
REMARK    9  A    between atoms: C21_21  and  C26_26 
ROOT
HETATM    1  C14   D T 601       9.612   8.559   2.047  1.00 17.92     0.728 A 
HETATM    2  N15   D T 601      10.796   8.620   2.689  1.00 19.07    -0.044 NA
HETATM    3  C16   D T 601      11.302   7.633   3.440  1.00 18.16     0.163 A 
HETATM    4  C17   D T 601      10.540   6.472   3.589  1.00 16.80     0.030 A 
HETATM    5  C18   D T 601       9.293   6.418   2.963  1.00 18.08     0.151 A 
HETATM    6  N19   D T 601       8.864   7.455   2.214  1.00 16.91    -0.074 NA
HETATM    7  C20   D T 601      11.026   5.416   4.387  1.00 17.65     0.034 A 
HETATM    8  C21   D T 601      12.281   5.523   5.008  1.00 18.53     0.047 A 
HETATM    9  C22   D T 601      13.008   6.724   4.825  1.00 19.48     0.260 A 
HETATM   10  O23   D T 601      14.098   6.774   5.430  1.00 21.52    -0.267 OA
HETATM   11  N24   D T 601      12.529   7.759   4.042  1.00 19.49    -0.301 N 
HETATM   12  C25   D T 601      13.270   8.990   3.816  1.00 20.07     0.161 C 
ENDROOT
BRANCH   1  13
HETATM   13  N13   D T 601       9.198   9.596   1.304  1.00 20.14    -0.188 N 
HETATM   14 1H13   D T 601       9.748   9.805   0.599  1.00 24.16     0.184 HD
BRANCH  13  15
HETATM   15  C12   D T 601       8.085  10.400   1.424  1.00 24.69     0.049 A 
HETATM   16  C11   D T 601       7.498  10.860   0.216  1.00 26.89     0.033 A 
HETATM   17  C10   D T 601       6.343  11.672   0.244  1.00 28.95     0.039 A 
HETATM   18  C09   D T 601       5.756  12.014   1.482  1.00 30.95     0.069 A 
HETATM   19  C35   D T 601       6.321  11.536   2.678  1.00 28.80     0.039 A 
HETATM   20  C34   D T 601       7.476  10.747   2.640  1.00 26.81     0.033 A 
BRANCH  18  21
HETATM   21  O08   D T 601       4.625  12.752   1.538  1.00 36.09    -0.350 OA
BRANCH  21  22
HETATM   22  C07   D T 601       3.470  12.167   0.874  1.00 42.63     0.195 C 
BRANCH  22  23
HETATM   23  C06   D T 601       2.486  11.621   1.956  1.00 46.85     0.143 C 
BRANCH  23  24
HETATM   24  N03   D T 601       1.780  10.346   1.555  1.00 51.06    -0.411 N 
BRANCH  24  25
HETATM   25  C02   D T 601       0.569  10.351   0.626  1.00 53.85     0.112 C 
HETATM   26  C01   D T 601      -0.280  11.659   0.501  1.00 52.69     0.026 C 
ENDBRANCH  24  25
BRANCH  24  27
HETATM   27  C04   D T 601       2.409   9.057   2.014  1.00 47.80     0.112 C 
HETATM   28  C05   D T 601       3.519   9.122   3.100  1.00 44.89     0.026 C 
ENDBRANCH  24  27
ENDBRANCH  23  24
ENDBRANCH  22  23
ENDBRANCH  21  22
ENDBRANCH  18  21
ENDBRANCH  13  15
ENDBRANCH   1  13
BRANCH   8  29
HETATM   29  C26   D T 601      12.803   4.455   5.805  1.00 21.63     0.023 A 
HETATM   30  C27   D T 601      12.441   4.340   7.176  1.00 22.75     0.046 A 
HETATM   31 CL28   D T 601      11.435   5.492   7.891  1.00 22.59    -0.083 Cl
HETATM   32  C29   D T 601      12.937   3.293   7.996  1.00 24.08     0.025 A 
HETATM   33  C30   D T 601      13.776   2.305   7.433  1.00 25.63     0.003 A 
HETATM   34  C31   D T 601      14.124   2.388   6.077  1.00 25.41     0.025 A 
HETATM   35  C32   D T 601      13.644   3.451   5.272  1.00 23.77     0.046 A 
HETATM   36 CL33   D T 601      14.107   3.498   3.645  1.00 25.94    -0.083 Cl
ENDBRANCH   8  29
TORSDOF 9
ENDMDL
MODEL 7
REMARK VINA RESULT:    -6.978      1.428      2.983
REMARK INTER + INTRA:         -11.634
REMARK INTER:                 -11.101
REMARK INTRA:                  -0.534
REMARK UNBOUND:                -0.985
REMARK  9 active torsions:
REMARK  status: ('A' for Active; 'I' for Inactive)
REMARK    1  A    between atoms: C02_2  and  N03_3 
REMARK    2  A    between atoms: N03_3  and  C04_4 
REMARK    3  A    between atoms: N03_3  and  C06_6 
REMARK    4  A    between atoms: C06_6  and  C07_7 
REMARK    5  A    between atoms: C07_7  and  O08_8 
REMARK    6  A    between atoms: O08_8  and  C09_9 
REMARK    7  A    between atoms: C12_12  and  N13_13 
REMARK    8  A    between atoms: N13_13  and  C14_14 
REMARK    9  A    between atoms: C21_21  and  C26_26 
ROOT
HETATM    1  C14   D T 601       6.258  13.827  -1.150  1.00 17.92     0.728 A 
HETATM    2  N15   D T 601       5.198  13.626  -0.341  1.00 19.07    -0.044 NA
HETATM    3  C16   D T 601       5.057  12.573   0.474  1.00 18.16     0.163 A 
HETATM    4  C17   D T 601       6.063  11.604   0.467  1.00 16.80     0.030 A 
HETATM    5  C18   D T 601       7.143  11.783  -0.399  1.00 18.08     0.151 A 
HETATM    6  N19   D T 601       7.213  12.881  -1.180  1.00 16.91    -0.074 NA
HETATM    7  C20   D T 601       5.946  10.470   1.296  1.00 17.65     0.034 A 
HETATM    8  C21   D T 601       4.833  10.328   2.141  1.00 18.53     0.047 A 
HETATM    9  C22   D T 601       3.842  11.339   2.103  1.00 19.48     0.260 A 
HETATM   10  O23   D T 601       2.861  11.140   2.848  1.00 21.52    -0.267 OA
HETATM   11  N24   D T 601       3.960  12.451   1.289  1.00 19.49    -0.301 N 
HETATM   12  C25   D T 601       2.970  13.516   1.254  1.00 20.07     0.161 C 
ENDROOT
BRANCH   1  13
HETATM   13  N13   D T 601       6.316  14.924  -1.920  1.00 20.14    -0.188 N 
HETATM   14 1H13   D T 601       5.665  15.547  -1.747  1.00 24.16     0.184 HD
BRANCH  13  15
HETATM   15  C12   D T 601       7.191  15.269  -2.927  1.00 24.69     0.049 A 
HETATM   16  C11   D T 601       8.046  16.375  -2.678  1.00 26.89     0.033 A 
HETATM   17  C10   D T 601       8.987  16.786  -3.647  1.00 28.95     0.039 A 
HETATM   18  C09   D T 601       9.093  16.082  -4.865  1.00 30.95     0.069 A 
HETATM   19  C35   D T 601       8.266  14.969  -5.102  1.00 28.80     0.039 A 
HETATM   20  C34   D T 601       7.324  14.580  -4.143  1.00 26.81     0.033 A 
BRANCH  18  21
HETATM   21  O08   D T 601      10.015  16.425  -5.792  1.00 36.09    -0.350 OA
BRANCH  21  22
HETATM   22  C07   D T 601      10.962  15.376  -6.140  1.00 42.63     0.195 C 
BRANCH  22  23
HETATM   23  C06   D T 601      12.093  15.337  -5.066  1.00 46.85     0.143 C 
BRANCH  23  24
HETATM   24  N03   D T 601      12.615  13.948  -4.776  1.00 51.06    -0.411 N 
BRANCH  24  25
HETATM   25  C02   D T 601      12.153  13.149  -3.561  1.00 53.85     0.112 C 
HETATM   26  C01   D T 601      10.895  13.637  -2.770  1.00 52.69     0.026 C 
ENDBRANCH  24  25
BRANCH  24  27
HETATM   27  C04   D T 601      13.518  13.340  -5.816  1.00 47.80     0.112 C 
HETATM   28  C05   D T 601      14.717  14.179  -6.337  1.00 44.89     0.026 C 
ENDBRANCH  24  27
ENDBRANCH  23  24
ENDBRANCH  22  23
ENDBRANCH  21  22
ENDBRANCH  18  21
ENDBRANCH  13  15
ENDBRANCH   1  13
BRANCH   8  29
HETATM   29  C26   D T 601       4.702   9.195   3.005  1.00 21.63     0.023 A 
HETATM   30  C27   D T 601       5.627   8.991   4.067  1.00 22.75     0.046 A 
HETATM   31 CL28   D T 601       6.920  10.054   4.285  1.00 22.59    -0.083 Cl
HETATM   32  C29   D T 601       5.525   7.881   4.945  1.00 24.08     0.025 A 
HETATM   33  C30   D T 601       4.452   6.973   4.800  1.00 25.63     0.003 A 
HETATM   34  C31   D T 601       3.516   7.171   3.775  1.00 25.41     0.025 A 
HETATM   35  C32   D T 601       3.640   8.269   2.886  1.00 23.77     0.046 A 
HETATM   36 CL33   D T 601       2.482   8.447   1.665  1.00 25.94    -0.083 Cl
ENDBRANCH   8  29
TORSDOF 9
ENDMDL
MODEL 8
REMARK VINA RESULT:    -6.928      3.711     10.364
REMARK INTER + INTRA:         -11.559
REMARK INTER:                 -10.502
REMARK INTRA:                  -1.057
REMARK UNBOUND:                -0.985
REMARK  9 active torsions:
REMARK  status: ('A' for Active; 'I' for Inactive)
REMARK    1  A    between atoms: C02_2  and  N03_3 
REMARK    2  A    between atoms: N03_3  and  C04_4 
REMARK    3  A    between atoms: N03_3  and  C06_6 
REMARK    4  A    between atoms: C06_6  and  C07_7 
REMARK    5  A    between atoms: C07_7  and  O08_8 
REMARK    6  A    between atoms: O08_8  and  C09_9 
REMARK    7  A    between atoms: C12_12  and  N13_13 
REMARK    8  A    between atoms: N13_13  and  C14_14 
REMARK    9  A    between atoms: C21_21  and  C26_26 
ROOT
HETATM    1  C14   D T 601       7.043  14.994  -2.214  1.00 17.92     0.728 A 
HETATM    2  N15   D T 601       8.287  15.493  -2.072  1.00 19.07    -0.044 NA
HETATM    3  C16   D T 601       9.242  15.424  -3.009  1.00 18.16     0.163 A 
HETATM    4  C17   D T 601       8.937  14.766  -4.203  1.00 16.80     0.030 A 
HETATM    5  C18   D T 601       7.664  14.208  -4.340  1.00 18.08     0.151 A 
HETATM    6  N19   D T 601       6.757  14.335  -3.350  1.00 16.91    -0.074 NA
HETATM    7  C20   D T 601       9.918  14.652  -5.208  1.00 17.65     0.034 A 
HETATM    8  C21   D T 601      11.189  15.219  -5.018  1.00 18.53     0.047 A 
HETATM    9  C22   D T 601      11.444  15.870  -3.786  1.00 19.48     0.260 A 
HETATM   10  O23   D T 601      12.601  16.321  -3.661  1.00 21.52    -0.267 OA
HETATM   11  N24   D T 601      10.479  15.980  -2.801  1.00 19.49    -0.301 N 
HETATM   12  C25   D T 601      10.708  16.668  -1.541  1.00 20.07     0.161 C 
ENDROOT
BRANCH   1  13
HETATM   13  N13   D T 601       6.149  15.129  -1.222  1.00 20.14    -0.188 N 
HETATM   14 1H13   D T 601       5.898  15.994  -1.049  1.00 24.16     0.184 HD
BRANCH  13  15
HETATM   15  C12   D T 601       5.549  14.183  -0.420  1.00 24.69     0.049 A 
HETATM   16  C11   D T 601       4.187  13.889  -0.692  1.00 26.89     0.033 A 
HETATM   17  C10   D T 601       3.497  12.919   0.067  1.00 28.95     0.039 A 
HETATM   18  C09   D T 601       4.171  12.221   1.093  1.00 30.95     0.069 A 
HETATM   19  C35   D T 601       5.528  12.492   1.345  1.00 28.80     0.039 A 
HETATM   20  C34   D T 601       6.198  13.468   0.599  1.00 26.81     0.033 A 
BRANCH  18  21
HETATM   21  O08   D T 601       3.549  11.256   1.806  1.00 36.09    -0.350 OA
BRANCH  21  22
HETATM   22  C07   D T 601       4.421  10.216   2.332  1.00 42.63     0.195 C 
BRANCH  22  23
HETATM   23  C06   D T 601       3.745   9.571   3.582  1.00 46.85     0.143 C 
BRANCH  23  24
HETATM   24  N03   D T 601       3.741   8.060   3.565  1.00 51.06    -0.411 N 
BRANCH  24  25
HETATM   25  C02   D T 601       4.787   7.241   4.317  1.00 53.85     0.112 C 
HETATM   26  C01   D T 601       6.129   7.929   4.730  1.00 52.69     0.026 C 
ENDBRANCH  24  25
BRANCH  24  27
HETATM   27  C04   D T 601       2.577   7.399   2.874  1.00 47.80     0.112 C 
HETATM   28  C05   D T 601       1.447   8.300   2.303  1.00 44.89     0.026 C 
ENDBRANCH  24  27
ENDBRANCH  23  24
ENDBRANCH  22  23
ENDBRANCH  21  22
ENDBRANCH  18  21
ENDBRANCH  13  15
ENDBRANCH   1  13
BRANCH   8  29
HETATM   29  C26   D T 601      12.195  15.133  -6.032  1.00 21.63     0.023 A 
HETATM   30  C27   D T 601      13.153  14.082  -6.006  1.00 22.75     0.046 A 
HETATM   31 CL28   D T 601      13.147  12.955  -4.749  1.00 22.59    -0.083 Cl
HETATM   32  C29   D T 601      14.162  13.964  -6.998  1.00 24.08     0.025 A 
HETATM   33  C30   D T 601      14.196  14.883  -8.070  1.00 25.63     0.003 A 
HETATM   34  C31   D T 601      13.245  15.912  -8.127  1.00 25.41     0.025 A 
HETATM   35  C32   D T 601      12.256  16.037  -7.118  1.00 23.77     0.046 A 
HETATM   36 CL33   D T 601      11.141  17.305  -7.240  1.00 25.94    -0.083 Cl
ENDBRANCH   8  29
TORSDOF 9
ENDMDL
MODEL 9
REMARK VINA RESULT:    -6.798      7.703     11.686
REMARK INTER + INTRA:         -11.360
REMARK INTER:                 -10.118
REMARK INTRA:                  -1.242
REMARK UNBOUND:                -0.985
REMARK  9 active torsions:
REMARK  status: ('A' for Active; 'I' for Inactive)
REMARK    1  A    between atoms: C02_2  and  N03_3 
REMARK    2  A    between atoms: N03_3  and  C04_4 
REMARK    3  A    between atoms: N03_3  and  C06_6 
REMARK    4  A    between atoms: C06_6  and  C07_7 
REMARK    5  A    between atoms: C07_7  and  O08_8 
REMARK    6  A    between atoms: O08_8  and  C09_9 
REMARK    7  A    between atoms: C12_12  and  N13_13 
REMARK    8  A    between atoms: N13_13  and  C14_14 
REMARK    9  A    between atoms: C21_21  and  C26_26 
ROOT
HETATM    1  C14   D T 601      10.968   6.326   5.324  1.00 17.92     0.728 A 
HETATM    2  N15   D T 601      11.645   7.314   5.944  1.00 19.07    -0.044 NA
HETATM    3  C16   D T 601      12.033   7.276   7.225  1.00 18.16     0.163 A 
HETATM    4  C17   D T 601      11.691   6.150   7.977  1.00 16.80     0.030 A 
HETATM    5  C18   D T 601      10.952   5.143   7.354  1.00 18.08     0.151 A 
HETATM    6  N19   D T 601      10.612   5.255   6.054  1.00 16.91    -0.074 NA
HETATM    7  C20   D T 601      12.063   6.078   9.335  1.00 17.65     0.034 A 
HETATM    8  C21   D T 601      12.794   7.124   9.921  1.00 18.53     0.047 A 
HETATM    9  C22   D T 601      13.110   8.243   9.112  1.00 19.48     0.260 A 
HETATM   10  O23   D T 601      13.729   9.155   9.697  1.00 21.52    -0.267 OA
HETATM   11  N24   D T 601      12.744   8.311   7.779  1.00 19.49    -0.301 N 
HETATM   12  C25   D T 601      13.081   9.436   6.922  1.00 20.07     0.161 C 
ENDROOT
BRANCH   1  13
HETATM   13  N13   D T 601      10.637   6.450   4.029  1.00 20.14    -0.188 N 
HETATM   14 1H13   D T 601      11.084   5.881   3.465  1.00 24.16     0.184 HD
BRANCH  13  15
HETATM   15  C12   D T 601       9.740   7.291   3.408  1.00 24.69     0.049 A 
HETATM   16  C11   D T 601       8.520   7.539   4.093  1.00 26.89     0.033 A 
HETATM   17  C10   D T 601       7.550   8.403   3.540  1.00 28.95     0.039 A 
HETATM   18  C09   D T 601       7.801   9.041   2.306  1.00 30.95     0.069 A 
HETATM   19  C35   D T 601       9.021   8.818   1.640  1.00 28.80     0.039 A 
HETATM   20  C34   D T 601       9.968   7.946   2.188  1.00 26.81     0.033 A 
BRANCH  18  21
HETATM   21  O08   D T 601       6.911   9.909   1.774  1.00 36.09    -0.350 OA
BRANCH  21  22
HETATM   22  C07   D T 601       6.129  10.663   2.741  1.00 42.63     0.195 C 
BRANCH  22  23
HETATM   23  C06   D T 601       4.853  11.221   2.036  1.00 46.85     0.143 C 
BRANCH  23  24
HETATM   24  N03   D T 601       3.567  10.569   2.490  1.00 51.06    -0.411 N 
BRANCH  24  25
HETATM   25  C02   D T 601       2.199  11.133   2.116  1.00 53.85     0.112 C 
HETATM   26  C01   D T 601       2.016  11.798   0.712  1.00 52.69     0.026 C 
ENDBRANCH  24  25
BRANCH  24  27
HETATM   27  C04   D T 601       3.700   9.260   3.224  1.00 47.80     0.112 C 
HETATM   28  C05   D T 601       2.506   8.267   3.189  1.00 44.89     0.026 C 
ENDBRANCH  24  27
ENDBRANCH  23  24
ENDBRANCH  22  23
ENDBRANCH  21  22
ENDBRANCH  18  21
ENDBRANCH  13  15
ENDBRANCH   1  13
BRANCH   8  29
HETATM   29  C26   D T 601      13.200   7.064  11.292  1.00 21.63     0.023 A 
HETATM   30  C27   D T 601      12.352   7.573  12.315  1.00 22.75     0.046 A 
HETATM   31 CL28   D T 601      10.882   8.302  11.917  1.00 22.59    -0.083 Cl
HETATM   32  C29   D T 601      12.721   7.527  13.684  1.00 24.08     0.025 A 
HETATM   33  C30   D T 601      13.940   6.917  14.058  1.00 25.63     0.003 A 
HETATM   34  C31   D T 601      14.777   6.388  13.066  1.00 25.41     0.025 A 
HETATM   35  C32   D T 601      14.413   6.461  11.698  1.00 23.77     0.046 A 
HETATM   36 CL33   D T 601      15.472   5.810  10.550  1.00 25.94    -0.083 Cl
ENDBRANCH   8  29
TORSDOF 9
ENDMDL
