MODEL 1
REMARK VINA RESULT:    -7.013      0.000      0.000
REMARK INTER + INTRA:         -12.573
REMARK INTER:                 -10.703
REMARK INTRA:                  -1.869
REMARK UNBOUND:                -1.869
REMARK  9 active torsions:
REMARK  status: ('A' for Active; 'I' for Inactive)
REMARK    1  A    between atoms: C02_2  and  N03_3 
REMARK    2  A    between atoms: N03_3  and  C04_4 
REMARK    3  A    between atoms: N03_3  and  C06_6 
REMARK    4  A    between atoms: C06_6  and  C07_7 
REMARK    5  A    between atoms: C07_7  and  O08_8 
REMARK    6  A    between atoms: O08_8  and  C09_9 
REMARK    7  A    between atoms: C12_12  and  N13_13 
REMARK    8  A    between atoms: N13_13  and  C14_14 
REMARK    9  A    between atoms: C21_21  and  C26_26 
ROOT
HETATM    1  C14   D T 601      -4.427   0.274 -12.307  1.00 17.92     0.728 A 
HETATM    2  N15   D T 601      -5.480   0.775 -12.982  1.00 19.07    -0.044 NA
HETATM    3  C16   D T 601      -6.628   0.116 -13.192  1.00 18.16     0.163 A 
HETATM    4  C17   D T 601      -6.729  -1.189 -12.703  1.00 16.80     0.030 A 
HETATM    5  C18   D T 601      -5.625  -1.731 -12.040  1.00 18.08     0.151 A 
HETATM    6  N19   D T 601      -4.511  -0.991 -11.860  1.00 16.91    -0.074 NA
HETATM    7  C20   D T 601      -7.911  -1.925 -12.920  1.00 17.65     0.034 A 
HETATM    8  C21   D T 601      -8.988  -1.341 -13.604  1.00 18.53     0.047 A 
HETATM    9  C22   D T 601      -8.828  -0.017 -14.082  1.00 19.48     0.260 A 
HETATM   10  O23   D T 601      -9.806   0.435 -14.713  1.00 21.52    -0.267 OA
HETATM   11  N24   D T 601      -7.668   0.704 -13.868  1.00 19.49    -0.301 N 
HETATM   12  C25   D T 601      -7.490   2.073 -14.323  1.00 20.07     0.161 C 
ENDROOT
BRANCH   1  13
HETATM   13  N13   D T 601      -3.325   1.019 -12.132  1.00 20.14    -0.188 N 
HETATM   14 1H13   D T 601      -2.700   0.941 -12.799  1.00 24.16     0.184 HD
BRANCH  13  15
HETATM   15  C12   D T 601      -2.979   1.884 -11.117  1.00 24.69     0.049 A 
HETATM   16  C11   D T 601      -3.974   2.154 -10.142  1.00 26.89     0.033 A 
HETATM   17  C10   D T 601      -3.699   3.014  -9.056  1.00 28.95     0.039 A 
HETATM   18  C09   D T 601      -2.419   3.595  -8.927  1.00 30.95     0.069 A 
HETATM   19  C35   D T 601      -1.423   3.306  -9.878  1.00 28.80     0.039 A 
HETATM   20  C34   D T 601      -1.712   2.468 -10.960  1.00 26.81     0.033 A 
BRANCH  18  21
HETATM   21  O08   D T 601      -2.113   4.386  -7.875  1.00 36.09    -0.350 OA
BRANCH  21  22
HETATM   22  C07   D T 601      -1.738   5.749  -8.213  1.00 42.63     0.195 C 
BRANCH  22  23
HETATM   23  C06   D T 601      -2.983   6.675  -8.041  1.00 46.85     0.143 C 
BRANCH  23  24
HETATM   24  N03   D T 601      -3.920   6.670  -9.228  1.00 51.06    -0.411 N 
BRANCH  24  25
HETATM   25  C02   D T 601      -3.402   6.658 -10.664  1.00 53.85     0.112 C 
HETATM   26  C01   D T 601      -4.049   5.673 -11.692  1.00 52.69     0.026 C 
ENDBRANCH  24  25
BRANCH  24  27
HETATM   27  C04   D T 601      -5.388   6.546  -8.923  1.00 47.80     0.112 C 
HETATM   28  C05   D T 601      -5.817   5.786  -7.638  1.00 44.89     0.026 C 
ENDBRANCH  24  27
ENDBRANCH  23  24
ENDBRANCH  22  23
ENDBRANCH  21  22
ENDBRANCH  18  21
ENDBRANCH  13  15
ENDBRANCH   1  13
BRANCH   8  29
HETATM   29  C26   D T 601     -10.207  -2.063 -13.819  1.00 21.63     0.023 A 
HETATM   30  C27   D T 601     -10.394  -2.814 -15.012  1.00 22.75     0.046 A 
HETATM   31 CL28   D T 601      -9.206  -2.820 -16.212  1.00 22.59    -0.083 Cl
HETATM   32  C29   D T 601     -11.587  -3.544 -15.256  1.00 24.08     0.025 A 
HETATM   33  C30   D T 601     -12.602  -3.570 -14.274  1.00 25.63     0.003 A 
HETATM   34  C31   D T 601     -12.424  -2.856 -13.081  1.00 25.41     0.025 A 
HETATM   35  C32   D T 601     -11.241  -2.109 -12.855  1.00 23.77     0.046 A 
HETATM   36 CL33   D T 601     -11.090  -1.262 -11.398  1.00 25.94    -0.083 Cl
ENDBRANCH   8  29
TORSDOF 9
ENDMDL
MODEL 2
REMARK VINA RESULT:    -6.917      2.180      3.311
REMARK INTER + INTRA:         -12.426
REMARK INTER:                 -11.316
REMARK INTRA:                  -1.110
REMARK UNBOUND:                -1.869
REMARK  9 active torsions:
REMARK  status: ('A' for Active; 'I' for Inactive)
REMARK    1  A    between atoms: C02_2  and  N03_3 
REMARK    2  A    between atoms: N03_3  and  C04_4 
REMARK    3  A    between atoms: N03_3  and  C06_6 
REMARK    4  A    between atoms: C06_6  and  C07_7 
REMARK    5  A    between atoms: C07_7  and  O08_8 
REMARK    6  A    between atoms: O08_8  and  C09_9 
REMARK    7  A    between atoms: C12_12  and  N13_13 
REMARK    8  A    between atoms: N13_13  and  C14_14 
REMARK    9  A    between atoms: C21_21  and  C26_26 
ROOT
HETATM    1  C14   D T 601      -4.328   0.495 -12.402  1.00 17.92     0.728 A 
HETATM    2  N15   D T 601      -5.419   0.973 -13.033  1.00 19.07    -0.044 NA
HETATM    3  C16   D T 601      -6.567   0.298 -13.175  1.00 18.16     0.163 A 
HETATM    4  C17   D T 601      -6.631  -0.999 -12.659  1.00 16.80     0.030 A 
HETATM    5  C18   D T 601      -5.490  -1.517 -12.041  1.00 18.08     0.151 A 
HETATM    6  N19   D T 601      -4.376  -0.763 -11.929  1.00 16.91    -0.074 NA
HETATM    7  C20   D T 601      -7.813  -1.751 -12.804  1.00 17.65     0.034 A 
HETATM    8  C21   D T 601      -8.929  -1.190 -13.446  1.00 18.53     0.047 A 
HETATM    9  C22   D T 601      -8.806   0.126 -13.954  1.00 19.48     0.260 A 
HETATM   10  O23   D T 601      -9.819   0.556 -14.544  1.00 21.52    -0.267 OA
HETATM   11  N24   D T 601      -7.646   0.863 -13.810  1.00 19.49    -0.301 N 
HETATM   12  C25   D T 601      -7.506   2.225 -14.298  1.00 20.07     0.161 C 
ENDROOT
BRANCH   1  13
HETATM   13  N13   D T 601      -3.228   1.255 -12.294  1.00 20.14    -0.188 N 
HETATM   14 1H13   D T 601      -2.813   1.443 -13.091  1.00 24.16     0.184 HD
BRANCH  13  15
HETATM   15  C12   D T 601      -2.618   1.799 -11.185  1.00 24.69     0.049 A 
HETATM   16  C11   D T 601      -1.204   1.691 -11.118  1.00 26.89     0.033 A 
HETATM   17  C10   D T 601      -0.495   2.237 -10.026  1.00 28.95     0.039 A 
HETATM   18  C09   D T 601      -1.193   2.914  -9.003  1.00 30.95     0.069 A 
HETATM   19  C35   D T 601      -2.591   3.048  -9.084  1.00 28.80     0.039 A 
HETATM   20  C34   D T 601      -3.286   2.486 -10.160  1.00 26.81     0.033 A 
BRANCH  18  21
HETATM   21  O08   D T 601      -0.537   3.486  -7.969  1.00 36.09    -0.350 OA
BRANCH  21  22
HETATM   22  C07   D T 601      -0.146   4.871  -8.174  1.00 42.63     0.195 C 
BRANCH  22  23
HETATM   23  C06   D T 601       1.398   4.936  -8.394  1.00 46.85     0.143 C 
BRANCH  23  24
HETATM   24  N03   D T 601       2.091   5.999  -7.571  1.00 51.06    -0.411 N 
BRANCH  24  25
HETATM   25  C02   D T 601       1.822   7.486  -7.784  1.00 53.85     0.112 C 
HETATM   26  C01   D T 601       1.552   8.391  -6.538  1.00 52.69     0.026 C 
ENDBRANCH  24  25
BRANCH  24  27
HETATM   27  C04   D T 601       2.961   5.513  -6.443  1.00 47.80     0.112 C 
HETATM   28  C05   D T 601       4.485   5.810  -6.503  1.00 44.89     0.026 C 
ENDBRANCH  24  27
ENDBRANCH  23  24
ENDBRANCH  22  23
ENDBRANCH  21  22
ENDBRANCH  18  21
ENDBRANCH  13  15
ENDBRANCH   1  13
BRANCH   8  29
HETATM   29  C26   D T 601     -10.148  -1.929 -13.587  1.00 21.63     0.023 A 
HETATM   30  C27   D T 601     -10.370  -2.730 -14.742  1.00 22.75     0.046 A 
HETATM   31 CL28   D T 601      -9.224  -2.778 -15.980  1.00 22.59    -0.083 Cl
HETATM   32  C29   D T 601     -11.565  -3.478 -14.914  1.00 24.08     0.025 A 
HETATM   33  C30   D T 601     -12.545  -3.470 -13.896  1.00 25.63     0.003 A 
HETATM   34  C31   D T 601     -12.332  -2.705 -12.741  1.00 25.41     0.025 A 
HETATM   35  C32   D T 601     -11.148  -1.942 -12.587  1.00 23.77     0.046 A 
HETATM   36 CL33   D T 601     -10.954  -1.033 -11.173  1.00 25.94    -0.083 Cl
ENDBRANCH   8  29
TORSDOF 9
ENDMDL
MODEL 3
REMARK VINA RESULT:    -6.769      1.538      2.698
REMARK INTER + INTRA:         -12.199
REMARK INTER:                 -10.610
REMARK INTRA:                  -1.588
REMARK UNBOUND:                -1.869
REMARK  9 active torsions:
REMARK  status: ('A' for Active; 'I' for Inactive)
REMARK    1  A    between atoms: C02_2  and  N03_3 
REMARK    2  A    between atoms: N03_3  and  C04_4 
REMARK    3  A    between atoms: N03_3  and  C06_6 
REMARK    4  A    between atoms: C06_6  and  C07_7 
REMARK    5  A    between atoms: C07_7  and  O08_8 
REMARK    6  A    between atoms: O08_8  and  C09_9 
REMARK    7  A    between atoms: C12_12  and  N13_13 
REMARK    8  A    between atoms: N13_13  and  C14_14 
REMARK    9  A    between atoms: C21_21  and  C26_26 
ROOT
HETATM    1  C14   D T 601      -4.697   0.790 -12.425  1.00 17.92     0.728 A 
HETATM    2  N15   D T 601      -5.800   1.206 -13.078  1.00 19.07    -0.044 NA
HETATM    3  C16   D T 601      -6.856   0.428 -13.352  1.00 18.16     0.163 A 
HETATM    4  C17   D T 601      -6.799  -0.911 -12.959  1.00 16.80     0.030 A 
HETATM    5  C18   D T 601      -5.640  -1.360 -12.319  1.00 18.08     0.151 A 
HETATM    6  N19   D T 601      -4.627  -0.505 -12.070  1.00 16.91    -0.074 NA
HETATM    7  C20   D T 601      -7.879  -1.769 -13.245  1.00 17.65     0.034 A 
HETATM    8  C21   D T 601      -9.016  -1.273 -13.903  1.00 18.53     0.047 A 
HETATM    9  C22   D T 601      -9.017   0.091 -14.283  1.00 19.48     0.260 A 
HETATM   10  O23   D T 601     -10.039   0.464 -14.895  1.00 21.52    -0.267 OA
HETATM   11  N24   D T 601      -7.956   0.931 -14.001  1.00 19.49    -0.301 N 
HETATM   12  C25   D T 601      -7.946   2.341 -14.355  1.00 20.07     0.161 C 
ENDROOT
BRANCH   1  13
HETATM   13  N13   D T 601      -3.697   1.651 -12.180  1.00 20.14    -0.188 N 
HETATM   14 1H13   D T 601      -3.031   1.653 -12.811  1.00 24.16     0.184 HD
BRANCH  13  15
HETATM   15  C12   D T 601      -3.505   2.532 -11.138  1.00 24.69     0.049 A 
HETATM   16  C11   D T 601      -2.880   3.766 -11.455  1.00 26.89     0.033 A 
HETATM   17  C10   D T 601      -2.661   4.736 -10.452  1.00 28.95     0.039 A 
HETATM   18  C09   D T 601      -3.084   4.486  -9.128  1.00 30.95     0.069 A 
HETATM   19  C35   D T 601      -3.730   3.275  -8.821  1.00 28.80     0.039 A 
HETATM   20  C34   D T 601      -3.925   2.313  -9.817  1.00 26.81     0.033 A 
BRANCH  18  21
HETATM   21  O08   D T 601      -2.929   5.413  -8.158  1.00 36.09    -0.350 OA
BRANCH  21  22
HETATM   22  C07   D T 601      -1.579   5.934  -8.010  1.00 42.63     0.195 C 
BRANCH  22  23
HETATM   23  C06   D T 601      -0.644   4.786  -7.517  1.00 46.85     0.143 C 
BRANCH  23  24
HETATM   24  N03   D T 601       0.698   4.747  -8.212  1.00 51.06    -0.411 N 
BRANCH  24  25
HETATM   25  C02   D T 601       1.907   5.508  -7.676  1.00 53.85     0.112 C 
HETATM   26  C01   D T 601       1.960   7.061  -7.851  1.00 52.69     0.026 C 
ENDBRANCH  24  25
BRANCH  24  27
HETATM   27  C04   D T 601       0.817   3.816  -9.389  1.00 47.80     0.112 C 
HETATM   28  C05   D T 601       0.100   2.439  -9.320  1.00 44.89     0.026 C 
ENDBRANCH  24  27
ENDBRANCH  23  24
ENDBRANCH  22  23
ENDBRANCH  21  22
ENDBRANCH  18  21
ENDBRANCH  13  15
ENDBRANCH   1  13
BRANCH   8  29
HETATM   29  C26   D T 601     -10.134  -2.122 -14.187  1.00 21.63     0.023 A 
HETATM   30  C27   D T 601     -10.177  -2.871 -15.396  1.00 22.75     0.046 A 
HETATM   31 CL28   D T 601      -8.937  -2.727 -16.532  1.00 22.59    -0.083 Cl
HETATM   32  C29   D T 601     -11.268  -3.724 -15.708  1.00 24.08     0.025 A 
HETATM   33  C30   D T 601     -12.321  -3.877 -14.779  1.00 25.63     0.003 A 
HETATM   34  C31   D T 601     -12.284  -3.166 -13.572  1.00 25.41     0.025 A 
HETATM   35  C32   D T 601     -11.204  -2.297 -13.278  1.00 23.77     0.046 A 
HETATM   36 CL33   D T 601     -11.221  -1.460 -11.807  1.00 25.94    -0.083 Cl
ENDBRANCH   8  29
TORSDOF 9
ENDMDL
MODEL 4
REMARK VINA RESULT:    -6.764      3.555     11.035
REMARK INTER + INTRA:         -12.192
REMARK INTER:                 -11.193
REMARK INTRA:                  -0.999
REMARK UNBOUND:                -1.869
REMARK  9 active torsions:
REMARK  status: ('A' for Active; 'I' for Inactive)
REMARK    1  A    between atoms: C02_2  and  N03_3 
REMARK    2  A    between atoms: N03_3  and  C04_4 
REMARK    3  A    between atoms: N03_3  and  C06_6 
REMARK    4  A    between atoms: C06_6  and  C07_7 
REMARK    5  A    between atoms: C07_7  and  O08_8 
REMARK    6  A    between atoms: O08_8  and  C09_9 
REMARK    7  A    between atoms: C12_12  and  N13_13 
REMARK    8  A    between atoms: N13_13  and  C14_14 
REMARK    9  A    between atoms: C21_21  and  C26_26 
ROOT
HETATM    1  C14   D T 601      -5.033  -0.209 -11.779  1.00 17.92     0.728 A 
HETATM    2  N15   D T 601      -4.005   0.605 -12.090  1.00 19.07    -0.044 NA
HETATM    3  C16   D T 601      -3.565   1.599 -11.308  1.00 18.16     0.163 A 
HETATM    4  C17   D T 601      -4.232   1.826 -10.102  1.00 16.80     0.030 A 
HETATM    5  C18   D T 601      -5.326   1.013  -9.793  1.00 18.08     0.151 A 
HETATM    6  N19   D T 601      -5.695   0.023 -10.633  1.00 16.91    -0.074 NA
HETATM    7  C20   D T 601      -3.814   2.874  -9.259  1.00 17.65     0.034 A 
HETATM    8  C21   D T 601      -2.718   3.673  -9.621  1.00 18.53     0.047 A 
HETATM    9  C22   D T 601      -2.082   3.402 -10.857  1.00 19.48     0.260 A 
HETATM   10  O23   D T 601      -1.137   4.167 -11.139  1.00 21.52    -0.267 OA
HETATM   11  N24   D T 601      -2.493   2.372 -11.682  1.00 19.49    -0.301 N 
HETATM   12  C25   D T 601      -1.839   2.056 -12.942  1.00 20.07     0.161 C 
ENDROOT
BRANCH   1  13
HETATM   13  N13   D T 601      -5.389  -1.192 -12.621  1.00 20.14    -0.188 N 
HETATM   14 1H13   D T 601      -4.756  -1.845 -12.738  1.00 24.16     0.184 HD
BRANCH  13  15
HETATM   15  C12   D T 601      -6.550  -1.381 -13.339  1.00 24.69     0.049 A 
HETATM   16  C11   D T 601      -7.616  -2.035 -12.666  1.00 26.89     0.033 A 
HETATM   17  C10   D T 601      -8.848  -2.254 -13.319  1.00 28.95     0.039 A 
HETATM   18  C09   D T 601      -9.031  -1.803 -14.644  1.00 30.95     0.069 A 
HETATM   19  C35   D T 601      -7.985  -1.130 -15.302  1.00 28.80     0.039 A 
HETATM   20  C34   D T 601      -6.762  -0.935 -14.652  1.00 26.81     0.033 A 
BRANCH  18  21
HETATM   21  O08   D T 601     -10.214  -1.959 -15.279  1.00 36.09    -0.350 OA
BRANCH  21  22
HETATM   22  C07   D T 601     -10.680  -3.331 -15.391  1.00 42.63     0.195 C 
BRANCH  22  23
HETATM   23  C06   D T 601     -10.025  -3.988 -16.646  1.00 46.85     0.143 C 
BRANCH  23  24
HETATM   24  N03   D T 601     -10.176  -5.492 -16.701  1.00 51.06    -0.411 N 
BRANCH  24  25
HETATM   25  C02   D T 601     -10.597  -6.305 -15.480  1.00 53.85     0.112 C 
HETATM   26  C01   D T 601     -10.640  -7.864 -15.589  1.00 52.69     0.026 C 
ENDBRANCH  24  25
BRANCH  24  27
HETATM   27  C04   D T 601     -10.018  -6.133 -18.054  1.00 47.80     0.112 C 
HETATM   28  C05   D T 601      -8.629  -6.711 -18.442  1.00 44.89     0.026 C 
ENDBRANCH  24  27
ENDBRANCH  23  24
ENDBRANCH  22  23
ENDBRANCH  21  22
ENDBRANCH  18  21
ENDBRANCH  13  15
ENDBRANCH   1  13
BRANCH   8  29
HETATM   29  C26   D T 601      -2.263   4.732  -8.770  1.00 21.63     0.023 A 
HETATM   30  C27   D T 601      -1.131   4.540  -7.929  1.00 22.75     0.046 A 
HETATM   31 CL28   D T 601      -0.346   3.046  -7.885  1.00 22.59    -0.083 Cl
HETATM   32  C29   D T 601      -0.651   5.569  -7.076  1.00 24.08     0.025 A 
HETATM   33  C30   D T 601      -1.276   6.835  -7.091  1.00 25.63     0.003 A 
HETATM   34  C31   D T 601      -2.377   7.050  -7.932  1.00 25.41     0.025 A 
HETATM   35  C32   D T 601      -2.867   6.011  -8.762  1.00 23.77     0.046 A 
HETATM   36 CL33   D T 601      -4.204   6.331  -9.748  1.00 25.94    -0.083 Cl
ENDBRANCH   8  29
TORSDOF 9
ENDMDL
MODEL 5
REMARK VINA RESULT:    -6.717      3.561     11.019
REMARK INTER + INTRA:         -12.120
REMARK INTER:                 -11.113
REMARK INTRA:                  -1.006
REMARK UNBOUND:                -1.869
REMARK  9 active torsions:
REMARK  status: ('A' for Active; 'I' for Inactive)
REMARK    1  A    between atoms: C02_2  and  N03_3 
REMARK    2  A    between atoms: N03_3  and  C04_4 
REMARK    3  A    between atoms: N03_3  and  C06_6 
REMARK    4  A    between atoms: C06_6  and  C07_7 
REMARK    5  A    between atoms: C07_7  and  O08_8 
REMARK    6  A    between atoms: O08_8  and  C09_9 
REMARK    7  A    between atoms: C12_12  and  N13_13 
REMARK    8  A    between atoms: N13_13  and  C14_14 
REMARK    9  A    between atoms: C21_21  and  C26_26 
ROOT
HETATM    1  C14   D T 601      -4.963  -0.136 -11.736  1.00 17.92     0.728 A 
HETATM    2  N15   D T 601      -3.929   0.670 -12.048  1.00 19.07    -0.044 NA
HETATM    3  C16   D T 601      -3.495   1.676 -11.278  1.00 18.16     0.163 A 
HETATM    4  C17   D T 601      -4.176   1.927 -10.085  1.00 16.80     0.030 A 
HETATM    5  C18   D T 601      -5.277   1.123  -9.776  1.00 18.08     0.151 A 
HETATM    6  N19   D T 601      -5.639   0.120 -10.602  1.00 16.91    -0.074 NA
HETATM    7  C20   D T 601      -3.765   2.988  -9.256  1.00 17.65     0.034 A 
HETATM    8  C21   D T 601      -2.661   3.777  -9.618  1.00 18.53     0.047 A 
HETATM    9  C22   D T 601      -2.011   3.481 -10.841  1.00 19.48     0.260 A 
HETATM   10  O23   D T 601      -1.060   4.238 -11.125  1.00 21.52    -0.267 OA
HETATM   11  N24   D T 601      -2.415   2.439 -11.653  1.00 19.49    -0.301 N 
HETATM   12  C25   D T 601      -1.747   2.098 -12.898  1.00 20.07     0.161 C 
ENDROOT
BRANCH   1  13
HETATM   13  N13   D T 601      -5.313  -1.131 -12.564  1.00 20.14    -0.188 N 
HETATM   14 1H13   D T 601      -4.661  -1.762 -12.702  1.00 24.16     0.184 HD
BRANCH  13  15
HETATM   15  C12   D T 601      -6.490  -1.363 -13.243  1.00 24.69     0.049 A 
HETATM   16  C11   D T 601      -7.508  -2.054 -12.535  1.00 26.89     0.033 A 
HETATM   17  C10   D T 601      -8.753  -2.319 -13.147  1.00 28.95     0.039 A 
HETATM   18  C09   D T 601      -8.996  -1.875 -14.465  1.00 30.95     0.069 A 
HETATM   19  C35   D T 601      -7.998  -1.165 -15.156  1.00 28.80     0.039 A 
HETATM   20  C34   D T 601      -6.761  -0.925 -14.548  1.00 26.81     0.033 A 
BRANCH  18  21
HETATM   21  O08   D T 601     -10.193  -2.074 -15.059  1.00 36.09    -0.350 OA
BRANCH  21  22
HETATM   22  C07   D T 601     -10.596  -3.464 -15.191  1.00 42.63     0.195 C 
BRANCH  22  23
HETATM   23  C06   D T 601     -10.169  -3.985 -16.599  1.00 46.85     0.143 C 
BRANCH  23  24
HETATM   24  N03   D T 601     -10.282  -5.485 -16.758  1.00 51.06    -0.411 N 
BRANCH  24  25
HETATM   25  C02   D T 601     -10.038  -6.174 -18.098  1.00 53.85     0.112 C 
HETATM   26  C01   D T 601      -8.632  -6.798 -18.380  1.00 52.69     0.026 C 
ENDBRANCH  24  25
BRANCH  24  27
HETATM   27  C04   D T 601     -10.521  -6.277 -15.501  1.00 47.80     0.112 C 
HETATM   28  C05   D T 601     -11.169  -7.684 -15.623  1.00 44.89     0.026 C 
ENDBRANCH  24  27
ENDBRANCH  23  24
ENDBRANCH  22  23
ENDBRANCH  21  22
ENDBRANCH  18  21
ENDBRANCH  13  15
ENDBRANCH   1  13
BRANCH   8  29
HETATM   29  C26   D T 601      -2.213   4.849  -8.781  1.00 21.63     0.023 A 
HETATM   30  C27   D T 601      -2.907   6.091  -8.774  1.00 22.75     0.046 A 
HETATM   31 CL28   D T 601      -4.233   6.333  -9.790  1.00 22.59    -0.083 Cl
HETATM   32  C29   D T 601      -2.492   7.174  -7.954  1.00 24.08     0.025 A 
HETATM   33  C30   D T 601      -1.392   7.009  -7.085  1.00 25.63     0.003 A 
HETATM   34  C31   D T 601      -0.711   5.783  -7.061  1.00 25.41     0.025 A 
HETATM   35  C32   D T 601      -1.115   4.715  -7.899  1.00 23.77     0.046 A 
HETATM   36 CL33   D T 601      -0.247   3.264  -7.829  1.00 25.94    -0.083 Cl
ENDBRANCH   8  29
TORSDOF 9
ENDMDL
MODEL 6
REMARK VINA RESULT:    -6.443      3.728     10.248
REMARK INTER + INTRA:         -11.703
REMARK INTER:                 -10.306
REMARK INTRA:                  -1.396
REMARK UNBOUND:                -1.869
REMARK  9 active torsions:
REMARK  status: ('A' for Active; 'I' for Inactive)
REMARK    1  A    between atoms: C02_2  and  N03_3 
REMARK    2  A    between atoms: N03_3  and  C04_4 
REMARK    3  A    between atoms: N03_3  and  C06_6 
REMARK    4  A    between atoms: C06_6  and  C07_7 
REMARK    5  A    between atoms: C07_7  and  O08_8 
REMARK    6  A    between atoms: O08_8  and  C09_9 
REMARK    7  A    between atoms: C12_12  and  N13_13 
REMARK    8  A    between atoms: N13_13  and  C14_14 
REMARK    9  A    between atoms: C21_21  and  C26_26 
ROOT
HETATM    1  C14   D T 601      -4.138   2.689 -11.197  1.00 17.92     0.728 A 
HETATM    2  N15   D T 601      -4.222   4.010 -11.446  1.00 19.07    -0.044 NA
HETATM    3  C16   D T 601      -4.220   4.959 -10.500  1.00 18.16     0.163 A 
HETATM    4  C17   D T 601      -4.155   4.551  -9.166  1.00 16.80     0.030 A 
HETATM    5  C18   D T 601      -4.112   3.181  -8.899  1.00 18.08     0.151 A 
HETATM    6  N19   D T 601      -4.104   2.291  -9.914  1.00 16.91    -0.074 NA
HETATM    7  C20   D T 601      -4.170   5.516  -8.140  1.00 17.65     0.034 A 
HETATM    8  C21   D T 601      -4.229   6.882  -8.459  1.00 18.53     0.047 A 
HETATM    9  C22   D T 601      -4.298   7.238  -9.828  1.00 19.48     0.260 A 
HETATM   10  O23   D T 601      -4.383   8.464 -10.047  1.00 21.52    -0.267 OA
HETATM   11  N24   D T 601      -4.282   6.290 -10.833  1.00 19.49    -0.301 N 
HETATM   12  C25   D T 601      -4.324   6.632 -12.246  1.00 20.07     0.161 C 
ENDROOT
BRANCH   1  13
HETATM   13  N13   D T 601      -4.130   1.814 -12.215  1.00 20.14    -0.188 N 
HETATM   14 1H13   D T 601      -3.343   1.782 -12.686  1.00 24.16     0.184 HD
BRANCH  13  15
HETATM   15  C12   D T 601      -5.107   0.955 -12.669  1.00 24.69     0.049 A 
HETATM   16  C11   D T 601      -4.937  -0.421 -12.366  1.00 26.89     0.033 A 
HETATM   17  C10   D T 601      -5.899  -1.370 -12.776  1.00 28.95     0.039 A 
HETATM   18  C09   D T 601      -7.050  -0.945 -13.475  1.00 30.95     0.069 A 
HETATM   19  C35   D T 601      -7.234   0.422 -13.750  1.00 28.80     0.039 A 
HETATM   20  C34   D T 601      -6.265   1.351 -13.356  1.00 26.81     0.033 A 
BRANCH  18  21
HETATM   21  O08   D T 601      -8.010  -1.823 -13.840  1.00 36.09    -0.350 OA
BRANCH  21  22
HETATM   22  C07   D T 601      -8.742  -2.433 -12.742  1.00 42.63     0.195 C 
BRANCH  22  23
HETATM   23  C06   D T 601     -10.254  -2.066 -12.875  1.00 46.85     0.143 C 
BRANCH  23  24
HETATM   24  N03   D T 601     -10.754  -1.125 -11.803  1.00 51.06    -0.411 N 
BRANCH  24  25
HETATM   25  C02   D T 601      -9.994   0.143 -11.424  1.00 53.85     0.112 C 
HETATM   26  C01   D T 601     -10.440   1.506 -12.047  1.00 52.69     0.026 C 
ENDBRANCH  24  25
BRANCH  24  27
HETATM   27  C04   D T 601     -12.106  -1.433 -11.217  1.00 47.80     0.112 C 
HETATM   28  C05   D T 601     -12.637  -2.890 -11.304  1.00 44.89     0.026 C 
ENDBRANCH  24  27
ENDBRANCH  23  24
ENDBRANCH  22  23
ENDBRANCH  21  22
ENDBRANCH  18  21
ENDBRANCH  13  15
ENDBRANCH   1  13
BRANCH   8  29
HETATM   29  C26   D T 601      -4.226   7.881  -7.433  1.00 21.63     0.023 A 
HETATM   30  C27   D T 601      -5.452   8.345  -6.880  1.00 22.75     0.046 A 
HETATM   31 CL28   D T 601      -6.925   7.762  -7.464  1.00 22.59    -0.083 Cl
HETATM   32  C29   D T 601      -5.486   9.332  -5.860  1.00 24.08     0.025 A 
HETATM   33  C30   D T 601      -4.274   9.839  -5.340  1.00 25.63     0.003 A 
HETATM   34  C31   D T 601      -3.056   9.375  -5.855  1.00 25.41     0.025 A 
HETATM   35  C32   D T 601      -3.030   8.408  -6.891  1.00 23.77     0.046 A 
HETATM   36 CL33   D T 601      -1.527   7.895  -7.475  1.00 25.94    -0.083 Cl
ENDBRANCH   8  29
TORSDOF 9
ENDMDL
MODEL 7
REMARK VINA RESULT:    -6.252      3.876      9.910
REMARK INTER + INTRA:         -11.411
REMARK INTER:                 -10.284
REMARK INTRA:                  -1.127
REMARK UNBOUND:                -1.869
REMARK  9 active torsions:
REMARK  status: ('A' for Active; 'I' for Inactive)
REMARK    1  A    between atoms: C02_2  and  N03_3 
REMARK    2  A    between atoms: N03_3  and  C04_4 
REMARK    3  A    between atoms: N03_3  and  C06_6 
REMARK    4  A    between atoms: C06_6  and  C07_7 
REMARK    5  A    between atoms: C07_7  and  O08_8 
REMARK    6  A    between atoms: O08_8  and  C09_9 
REMARK    7  A    between atoms: C12_12  and  N13_13 
REMARK    8  A    between atoms: N13_13  and  C14_14 
REMARK    9  A    between atoms: C21_21  and  C26_26 
ROOT
HETATM    1  C14   D T 601      -4.906  -0.402 -11.440  1.00 17.92     0.728 A 
HETATM    2  N15   D T 601      -3.576  -0.261 -11.608  1.00 19.07    -0.044 NA
HETATM    3  C16   D T 601      -2.848   0.731 -11.077  1.00 18.16     0.163 A 
HETATM    4  C17   D T 601      -3.515   1.698 -10.321  1.00 16.80     0.030 A 
HETATM    5  C18   D T 601      -4.900   1.581 -10.179  1.00 18.08     0.151 A 
HETATM    6  N19   D T 601      -5.555   0.542 -10.738  1.00 16.91    -0.074 NA
HETATM    7  C20   D T 601      -2.791   2.768  -9.762  1.00 17.65     0.034 A 
HETATM    8  C21   D T 601      -1.401   2.849  -9.945  1.00 18.53     0.047 A 
HETATM    9  C22   D T 601      -0.778   1.844 -10.724  1.00 19.48     0.260 A 
HETATM   10  O23   D T 601       0.452   1.989 -10.880  1.00 21.52    -0.267 OA
HETATM   11  N24   D T 601      -1.490   0.794 -11.271  1.00 19.49    -0.301 N 
HETATM   12  C25   D T 601      -0.869  -0.265 -12.050  1.00 20.07     0.161 C 
ENDROOT
BRANCH   1  13
HETATM   13  N13   D T 601      -5.546  -1.441 -11.998  1.00 20.14    -0.188 N 
HETATM   14 1H13   D T 601      -5.179  -2.262 -11.813  1.00 24.16     0.184 HD
BRANCH  13  15
HETATM   15  C12   D T 601      -6.663  -1.480 -12.804  1.00 24.69     0.049 A 
HETATM   16  C11   D T 601      -6.554  -0.856 -14.075  1.00 26.89     0.033 A 
HETATM   17  C10   D T 601      -7.644  -0.864 -14.973  1.00 28.95     0.039 A 
HETATM   18  C09   D T 601      -8.845  -1.513 -14.614  1.00 30.95     0.069 A 
HETATM   19  C35   D T 601      -8.943  -2.157 -13.367  1.00 28.80     0.039 A 
HETATM   20  C34   D T 601      -7.864  -2.127 -12.477  1.00 26.81     0.033 A 
BRANCH  18  21
HETATM   21  O08   D T 601      -9.888  -1.576 -15.470  1.00 36.09    -0.350 OA
BRANCH  21  22
HETATM   22  C07   D T 601     -10.554  -0.310 -15.728  1.00 42.63     0.195 C 
BRANCH  22  23
HETATM   23  C06   D T 601     -11.223   0.189 -14.408  1.00 46.85     0.143 C 
BRANCH  23  24
HETATM   24  N03   D T 601     -10.507   1.353 -13.761  1.00 51.06    -0.411 N 
BRANCH  24  25
HETATM   25  C02   D T 601     -10.479   1.540 -12.246  1.00 53.85     0.112 C 
HETATM   26  C01   D T 601     -11.751   1.170 -11.416  1.00 52.69     0.026 C 
ENDBRANCH  24  25
BRANCH  24  27
HETATM   27  C04   D T 601      -9.715   2.247 -14.676  1.00 47.80     0.112 C 
HETATM   28  C05   D T 601      -9.371   3.684 -14.194  1.00 44.89     0.026 C 
ENDBRANCH  24  27
ENDBRANCH  23  24
ENDBRANCH  22  23
ENDBRANCH  21  22
ENDBRANCH  18  21
ENDBRANCH  13  15
ENDBRANCH   1  13
BRANCH   8  29
HETATM   29  C26   D T 601      -0.641   3.918  -9.368  1.00 21.63     0.023 A 
HETATM   30  C27   D T 601      -0.710   5.227  -9.922  1.00 22.75     0.046 A 
HETATM   31 CL28   D T 601      -1.646   5.523 -11.295  1.00 22.59    -0.083 Cl
HETATM   32  C29   D T 601       0.028   6.309  -9.374  1.00 24.08     0.025 A 
HETATM   33  C30   D T 601       0.817   6.103  -8.221  1.00 25.63     0.003 A 
HETATM   34  C31   D T 601       0.877   4.825  -7.647  1.00 25.41     0.025 A 
HETATM   35  C32   D T 601       0.158   3.744  -8.214  1.00 23.77     0.046 A 
HETATM   36 CL33   D T 601       0.279   2.224  -7.479  1.00 25.94    -0.083 Cl
ENDBRANCH   8  29
TORSDOF 9
ENDMDL
MODEL 8
REMARK VINA RESULT:    -6.200      3.806     10.211
REMARK INTER + INTRA:         -11.332
REMARK INTER:                 -10.010
REMARK INTRA:                  -1.322
REMARK UNBOUND:                -1.869
REMARK  9 active torsions:
REMARK  status: ('A' for Active; 'I' for Inactive)
REMARK    1  A    between atoms: C02_2  and  N03_3 
REMARK    2  A    between atoms: N03_3  and  C04_4 
REMARK    3  A    between atoms: N03_3  and  C06_6 
REMARK    4  A    between atoms: C06_6  and  C07_7 
REMARK    5  A    between atoms: C07_7  and  O08_8 
REMARK    6  A    between atoms: O08_8  and  C09_9 
REMARK    7  A    between atoms: C12_12  and  N13_13 
REMARK    8  A    between atoms: N13_13  and  C14_14 
REMARK    9  A    between atoms: C21_21  and  C26_26 
ROOT
HETATM    1  C14   D T 601      -4.062   2.799 -11.083  1.00 17.92     0.728 A 
HETATM    2  N15   D T 601      -4.140   4.123 -11.320  1.00 19.07    -0.044 NA
HETATM    3  C16   D T 601      -4.125   5.064 -10.367  1.00 18.16     0.163 A 
HETATM    4  C17   D T 601      -4.052   4.645  -9.037  1.00 16.80     0.030 A 
HETATM    5  C18   D T 601      -4.015   3.272  -8.781  1.00 18.08     0.151 A 
HETATM    6  N19   D T 601      -4.021   2.391  -9.803  1.00 16.91    -0.074 NA
HETATM    7  C20   D T 601      -4.054   5.602  -8.003  1.00 17.65     0.034 A 
HETATM    8  C21   D T 601      -4.107   6.970  -8.310  1.00 18.53     0.047 A 
HETATM    9  C22   D T 601      -4.184   7.338  -9.676  1.00 19.48     0.260 A 
HETATM   10  O23   D T 601      -4.264   8.566  -9.885  1.00 21.52    -0.267 OA
HETATM   11  N24   D T 601      -4.181   6.398 -10.689  1.00 19.49    -0.301 N 
HETATM   12  C25   D T 601      -4.231   6.752 -12.099  1.00 20.07     0.161 C 
ENDROOT
BRANCH   1  13
HETATM   13  N13   D T 601      -4.066   1.932 -12.107  1.00 20.14    -0.188 N 
HETATM   14 1H13   D T 601      -3.347   2.004 -12.673  1.00 24.16     0.184 HD
BRANCH  13  15
HETATM   15  C12   D T 601      -4.972   0.952 -12.450  1.00 24.69     0.049 A 
HETATM   16  C11   D T 601      -6.113   1.368 -13.184  1.00 26.89     0.033 A 
HETATM   17  C10   D T 601      -7.084   0.427 -13.593  1.00 28.95     0.039 A 
HETATM   18  C09   D T 601      -6.909  -0.940 -13.289  1.00 30.95     0.069 A 
HETATM   19  C35   D T 601      -5.763  -1.357 -12.587  1.00 28.80     0.039 A 
HETATM   20  C34   D T 601      -4.817  -0.415 -12.170  1.00 26.81     0.033 A 
BRANCH  18  21
HETATM   21  O08   D T 601      -7.798  -1.868 -13.706  1.00 36.09    -0.350 OA
BRANCH  21  22
HETATM   22  C07   D T 601      -8.849  -2.191 -12.756  1.00 42.63     0.195 C 
BRANCH  22  23
HETATM   23  C06   D T 601     -10.158  -1.453 -13.177  1.00 46.85     0.143 C 
BRANCH  23  24
HETATM   24  N03   D T 601     -10.623  -0.413 -12.183  1.00 51.06    -0.411 N 
BRANCH  24  25
HETATM   25  C02   D T 601     -11.105  -0.792 -10.785  1.00 53.85     0.112 C 
HETATM   26  C01   D T 601     -11.135   0.306  -9.672  1.00 52.69     0.026 C 
ENDBRANCH  24  25
BRANCH  24  27
HETATM   27  C04   D T 601     -10.465   1.027 -12.594  1.00 47.80     0.112 C 
HETATM   28  C05   D T 601     -10.700   1.403 -14.082  1.00 44.89     0.026 C 
ENDBRANCH  24  27
ENDBRANCH  23  24
ENDBRANCH  22  23
ENDBRANCH  21  22
ENDBRANCH  18  21
ENDBRANCH  13  15
ENDBRANCH   1  13
BRANCH   8  29
HETATM   29  C26   D T 601      -4.090   7.962  -7.277  1.00 21.63     0.023 A 
HETATM   30  C27   D T 601      -2.855   8.492  -6.812  1.00 22.75     0.046 A 
HETATM   31 CL28   D T 601      -1.393   7.921  -7.435  1.00 22.59    -0.083 Cl
HETATM   32  C29   D T 601      -2.801   9.477  -5.791  1.00 24.08     0.025 A 
HETATM   33  C30   D T 601      -4.002   9.986  -5.249  1.00 25.63     0.003 A 
HETATM   34  C31   D T 601      -5.230   9.493  -5.713  1.00 25.41     0.025 A 
HETATM   35  C32   D T 601      -5.275   8.491  -6.715  1.00 23.77     0.046 A 
HETATM   36 CL33   D T 601      -6.788   7.932  -7.226  1.00 25.94    -0.083 Cl
ENDBRANCH   8  29
TORSDOF 9
ENDMDL
MODEL 9
REMARK VINA RESULT:    -6.076      2.367      3.313
REMARK INTER + INTRA:         -11.141
REMARK INTER:                  -9.530
REMARK INTRA:                  -1.612
REMARK UNBOUND:                -1.869
REMARK  9 active torsions:
REMARK  status: ('A' for Active; 'I' for Inactive)
REMARK    1  A    between atoms: C02_2  and  N03_3 
REMARK    2  A    between atoms: N03_3  and  C04_4 
REMARK    3  A    between atoms: N03_3  and  C06_6 
REMARK    4  A    between atoms: C06_6  and  C07_7 
REMARK    5  A    between atoms: C07_7  and  O08_8 
REMARK    6  A    between atoms: O08_8  and  C09_9 
REMARK    7  A    between atoms: C12_12  and  N13_13 
REMARK    8  A    between atoms: N13_13  and  C14_14 
REMARK    9  A    between atoms: C21_21  and  C26_26 
ROOT
HETATM    1  C14   D T 601      -6.005  -0.357 -12.283  1.00 17.92     0.728 A 
HETATM    2  N15   D T 601      -7.279  -0.064 -11.954  1.00 19.07    -0.044 NA
HETATM    3  C16   D T 601      -8.337  -0.307 -12.740  1.00 18.16     0.163 A 
HETATM    4  C17   D T 601      -8.102  -0.874 -13.994  1.00 16.80     0.030 A 
HETATM    5  C18   D T 601      -6.780  -1.139 -14.359  1.00 18.08     0.151 A 
HETATM    6  N19   D T 601      -5.773  -0.877 -13.500  1.00 16.91    -0.074 NA
HETATM    7  C20   D T 601      -9.185  -1.126 -14.860  1.00 17.65     0.034 A 
HETATM    8  C21   D T 601     -10.495  -0.829 -14.453  1.00 18.53     0.047 A 
HETATM    9  C22   D T 601     -10.673  -0.250 -13.172  1.00 19.48     0.260 A 
HETATM   10  O23   D T 601     -11.856   0.024 -12.882  1.00 21.52    -0.267 OA
HETATM   11  N24   D T 601      -9.611  -0.004 -12.325  1.00 19.49    -0.301 N 
HETATM   12  C25   D T 601      -9.771   0.563 -10.995  1.00 20.07     0.161 C 
ENDROOT
BRANCH   1  13
HETATM   13  N13   D T 601      -5.012  -0.093 -11.419  1.00 20.14    -0.188 N 
HETATM   14 1H13   D T 601      -5.007  -0.620 -10.668  1.00 24.16     0.184 HD
BRANCH  13  15
HETATM   15  C12   D T 601      -3.999   0.839 -11.475  1.00 24.69     0.049 A 
HETATM   16  C11   D T 601      -2.738   0.383 -11.942  1.00 26.89     0.033 A 
HETATM   17  C10   D T 601      -1.648   1.274 -12.048  1.00 28.95     0.039 A 
HETATM   18  C09   D T 601      -1.817   2.634 -11.708  1.00 30.95     0.069 A 
HETATM   19  C35   D T 601      -3.073   3.093 -11.273  1.00 28.80     0.039 A 
HETATM   20  C34   D T 601      -4.142   2.198 -11.153  1.00 26.81     0.033 A 
BRANCH  18  21
HETATM   21  O08   D T 601      -0.805   3.519 -11.843  1.00 36.09    -0.350 OA
BRANCH  21  22
HETATM   22  C07   D T 601      -1.067   4.846 -11.310  1.00 42.63     0.195 C 
BRANCH  22  23
HETATM   23  C06   D T 601      -0.168   5.074 -10.054  1.00 46.85     0.143 C 
BRANCH  23  24
HETATM   24  N03   D T 601      -0.881   4.844  -8.740  1.00 51.06    -0.411 N 
BRANCH  24  25
HETATM   25  C02   D T 601      -2.027   5.739  -8.277  1.00 53.85     0.112 C 
HETATM   26  C01   D T 601      -3.465   5.133  -8.178  1.00 52.69     0.026 C 
ENDBRANCH  24  25
BRANCH  24  27
HETATM   27  C04   D T 601      -0.490   3.610  -7.972  1.00 47.80     0.112 C 
HETATM   28  C05   D T 601       0.364   2.529  -8.690  1.00 44.89     0.026 C 
ENDBRANCH  24  27
ENDBRANCH  23  24
ENDBRANCH  22  23
ENDBRANCH  21  22
ENDBRANCH  18  21
ENDBRANCH  13  15
ENDBRANCH   1  13
BRANCH   8  29
HETATM   29  C26   D T 601     -11.613  -1.095 -15.308  1.00 21.63     0.023 A 
HETATM   30  C27   D T 601     -12.045  -0.118 -16.248  1.00 22.75     0.046 A 
HETATM   31 CL28   D T 601     -11.279   1.384 -16.330  1.00 22.59    -0.083 Cl
HETATM   32  C29   D T 601     -13.147  -0.350 -17.113  1.00 24.08     0.025 A 
HETATM   33  C30   D T 601     -13.809  -1.597 -17.080  1.00 25.63     0.003 A 
HETATM   34  C31   D T 601     -13.381  -2.580 -16.177  1.00 25.41     0.025 A 
HETATM   35  C32   D T 601     -12.296  -2.333 -15.300  1.00 23.77     0.046 A 
HETATM   36 CL33   D T 601     -11.834  -3.558 -14.227  1.00 25.94    -0.083 Cl
ENDBRANCH   8  29
TORSDOF 9
ENDMDL
