MODEL 1
REMARK VINA RESULT:    -8.043      0.000      0.000
REMARK INTER + INTRA:         -13.290
REMARK INTER:                 -12.275
REMARK INTRA:                  -1.014
REMARK UNBOUND:                -1.014
REMARK  9 active torsions:
REMARK  status: ('A' for Active; 'I' for Inactive)
REMARK    1  A    between atoms: C02_2  and  N03_3 
REMARK    2  A    between atoms: N03_3  and  C04_4 
REMARK    3  A    between atoms: N03_3  and  C06_6 
REMARK    4  A    between atoms: C06_6  and  C07_7 
REMARK    5  A    between atoms: C07_7  and  O08_8 
REMARK    6  A    between atoms: O08_8  and  C09_9 
REMARK    7  A    between atoms: C12_12  and  N13_13 
REMARK    8  A    between atoms: N13_13  and  C14_14 
REMARK    9  A    between atoms: C21_21  and  C26_26 
ROOT
HETATM    1  C14   D T 601       7.273   1.995   1.190  1.00 17.92     0.728 A 
HETATM    2  N15   D T 601       6.553   3.071   0.814  1.00 19.07    -0.044 NA
HETATM    3  C16   D T 601       5.550   3.038  -0.074  1.00 18.16     0.163 A 
HETATM    4  C17   D T 601       5.248   1.812  -0.671  1.00 16.80     0.030 A 
HETATM    5  C18   D T 601       6.017   0.701  -0.318  1.00 18.08     0.151 A 
HETATM    6  N19   D T 601       7.003   0.819   0.597  1.00 16.91    -0.074 NA
HETATM    7  C20   D T 601       4.213   1.736  -1.623  1.00 17.65     0.034 A 
HETATM    8  C21   D T 601       3.476   2.884  -1.955  1.00 18.53     0.047 A 
HETATM    9  C22   D T 601       3.831   4.101  -1.322  1.00 19.48     0.260 A 
HETATM   10  O23   D T 601       3.163   5.093  -1.684  1.00 21.52    -0.267 OA
HETATM   11  N24   D T 601       4.845   4.173  -0.386  1.00 19.49    -0.301 N 
HETATM   12  C25   D T 601       5.208   5.405   0.297  1.00 20.07     0.161 C 
ENDROOT
BRANCH   1  13
HETATM   13  N13   D T 601       8.250   2.125   2.102  1.00 20.14    -0.188 N 
HETATM   14 1H13   D T 601       7.966   2.394   2.931  1.00 24.16     0.184 HD
BRANCH  13  15
HETATM   15  C12   D T 601       9.609   1.924   1.995  1.00 24.69     0.049 A 
HETATM   16  C11   D T 601      10.446   2.897   2.601  1.00 26.89     0.033 A 
HETATM   17  C10   D T 601      11.851   2.760   2.558  1.00 28.95     0.039 A 
HETATM   18  C09   D T 601      12.429   1.640   1.923  1.00 30.95     0.069 A 
HETATM   19  C35   D T 601      11.599   0.661   1.346  1.00 28.80     0.039 A 
HETATM   20  C34   D T 601      10.208   0.814   1.379  1.00 26.81     0.033 A 
BRANCH  18  21
HETATM   21  O08   D T 601      13.767   1.460   1.906  1.00 36.09    -0.350 OA
BRANCH  21  22
HETATM   22  C07   D T 601      14.507   2.396   1.073  1.00 42.63     0.195 C 
BRANCH  22  23
HETATM   23  C06   D T 601      15.443   1.593   0.115  1.00 46.85     0.143 C 
BRANCH  23  24
HETATM   24  N03   D T 601      15.113   1.765  -1.351  1.00 51.06    -0.411 N 
BRANCH  24  25
HETATM   25  C02   D T 601      14.163   0.820  -2.080  1.00 53.85     0.112 C 
HETATM   26  C01   D T 601      14.708  -0.022  -3.280  1.00 52.69     0.026 C 
ENDBRANCH  24  25
BRANCH  24  27
HETATM   27  C04   D T 601      15.667   2.994  -2.023  1.00 47.80     0.112 C 
HETATM   28  C05   D T 601      17.194   3.057  -2.306  1.00 44.89     0.026 C 
ENDBRANCH  24  27
ENDBRANCH  23  24
ENDBRANCH  22  23
ENDBRANCH  21  22
ENDBRANCH  18  21
ENDBRANCH  13  15
ENDBRANCH   1  13
BRANCH   8  29
HETATM   29  C26   D T 601       2.407   2.828  -2.907  1.00 21.63     0.023 A 
HETATM   30  C27   D T 601       2.672   2.998  -4.294  1.00 22.75     0.046 A 
HETATM   31 CL28   D T 601       4.240   3.319  -4.830  1.00 22.59    -0.083 Cl
HETATM   32  C29   D T 601       1.636   2.944  -5.264  1.00 24.08     0.025 A 
HETATM   33  C30   D T 601       0.312   2.669  -4.856  1.00 25.63     0.003 A 
HETATM   34  C31   D T 601       0.037   2.475  -3.495  1.00 25.41     0.025 A 
HETATM   35  C32   D T 601       1.072   2.554  -2.529  1.00 23.77     0.046 A 
HETATM   36 CL33   D T 601       0.673   2.319  -0.903  1.00 25.94    -0.083 Cl
ENDBRANCH   8  29
TORSDOF 9
ENDMDL
MODEL 2
REMARK VINA RESULT:    -7.877      3.768     11.103
REMARK INTER + INTRA:         -13.036
REMARK INTER:                 -11.756
REMARK INTRA:                  -1.280
REMARK UNBOUND:                -1.014
REMARK  9 active torsions:
REMARK  status: ('A' for Active; 'I' for Inactive)
REMARK    1  A    between atoms: C02_2  and  N03_3 
REMARK    2  A    between atoms: N03_3  and  C04_4 
REMARK    3  A    between atoms: N03_3  and  C06_6 
REMARK    4  A    between atoms: C06_6  and  C07_7 
REMARK    5  A    between atoms: C07_7  and  O08_8 
REMARK    6  A    between atoms: O08_8  and  C09_9 
REMARK    7  A    between atoms: C12_12  and  N13_13 
REMARK    8  A    between atoms: N13_13  and  C14_14 
REMARK    9  A    between atoms: C21_21  and  C26_26 
ROOT
HETATM    1  C14   D T 601       8.288   1.692   1.574  1.00 17.92     0.728 A 
HETATM    2  N15   D T 601       9.387   2.126   2.224  1.00 19.07    -0.044 NA
HETATM    3  C16   D T 601      10.631   1.694   1.978  1.00 18.16     0.163 A 
HETATM    4  C17   D T 601      10.799   0.707   1.004  1.00 16.80     0.030 A 
HETATM    5  C18   D T 601       9.660   0.221   0.357  1.00 18.08     0.151 A 
HETATM    6  N19   D T 601       8.442   0.722   0.656  1.00 16.91    -0.074 NA
HETATM    7  C20   D T 601      12.088   0.211   0.728  1.00 17.65     0.034 A 
HETATM    8  C21   D T 601      13.201   0.722   1.415  1.00 18.53     0.047 A 
HETATM    9  C22   D T 601      12.970   1.718   2.396  1.00 19.48     0.260 A 
HETATM   10  O23   D T 601      13.994   2.107   2.997  1.00 21.52    -0.267 OA
HETATM   11  N24   D T 601      11.705   2.205   2.664  1.00 19.49    -0.301 N 
HETATM   12  C25   D T 601      11.447   3.247   3.646  1.00 20.07     0.161 C 
ENDROOT
BRANCH   1  13
HETATM   13  N13   D T 601       7.083   2.198   1.880  1.00 20.14    -0.188 N 
HETATM   14 1H13   D T 601       6.687   1.824   2.617  1.00 24.16     0.184 HD
BRANCH  13  15
HETATM   15  C12   D T 601       6.343   3.186   1.267  1.00 24.69     0.049 A 
HETATM   16  C11   D T 601       6.178   4.398   1.986  1.00 26.89     0.033 A 
HETATM   17  C10   D T 601       5.451   5.471   1.425  1.00 28.95     0.039 A 
HETATM   18  C09   D T 601       4.898   5.346   0.133  1.00 30.95     0.069 A 
HETATM   19  C35   D T 601       5.085   4.154  -0.592  1.00 28.80     0.039 A 
HETATM   20  C34   D T 601       5.792   3.090  -0.021  1.00 26.81     0.033 A 
BRANCH  18  21
HETATM   21  O08   D T 601       4.237   6.371  -0.447  1.00 36.09    -0.350 OA
BRANCH  21  22
HETATM   22  C07   D T 601       3.487   6.026  -1.645  1.00 42.63     0.195 C 
BRANCH  22  23
HETATM   23  C06   D T 601       1.961   6.171  -1.347  1.00 46.85     0.143 C 
BRANCH  23  24
HETATM   24  N03   D T 601       1.076   5.366  -2.272  1.00 51.06    -0.411 N 
BRANCH  24  25
HETATM   25  C02   D T 601       0.590   3.967  -1.907  1.00 53.85     0.112 C 
HETATM   26  C01   D T 601       1.647   2.857  -1.594  1.00 52.69     0.026 C 
ENDBRANCH  24  25
BRANCH  24  27
HETATM   27  C04   D T 601       0.592   6.066  -3.514  1.00 47.80     0.112 C 
HETATM   28  C05   D T 601       1.288   5.742  -4.865  1.00 44.89     0.026 C 
ENDBRANCH  24  27
ENDBRANCH  23  24
ENDBRANCH  22  23
ENDBRANCH  21  22
ENDBRANCH  18  21
ENDBRANCH  13  15
ENDBRANCH   1  13
BRANCH   8  29
HETATM   29  C26   D T 601      14.523   0.247   1.138  1.00 21.63     0.023 A 
HETATM   30  C27   D T 601      15.011  -0.928   1.773  1.00 22.75     0.046 A 
HETATM   31 CL28   D T 601      14.057  -1.747   2.901  1.00 22.59    -0.083 Cl
HETATM   32  C29   D T 601      16.315  -1.428   1.519  1.00 24.08     0.025 A 
HETATM   33  C30   D T 601      17.141  -0.777   0.576  1.00 25.63     0.003 A 
HETATM   34  C31   D T 601      16.667   0.370  -0.079  1.00 25.41     0.025 A 
HETATM   35  C32   D T 601      15.373   0.878   0.199  1.00 23.77     0.046 A 
HETATM   36 CL33   D T 601      14.863   2.268  -0.618  1.00 25.94    -0.083 Cl
ENDBRANCH   8  29
TORSDOF 9
ENDMDL
MODEL 3
REMARK VINA RESULT:    -7.789      3.721     11.035
REMARK INTER + INTRA:         -12.901
REMARK INTER:                 -11.673
REMARK INTRA:                  -1.228
REMARK UNBOUND:                -1.014
REMARK  9 active torsions:
REMARK  status: ('A' for Active; 'I' for Inactive)
REMARK    1  A    between atoms: C02_2  and  N03_3 
REMARK    2  A    between atoms: N03_3  and  C04_4 
REMARK    3  A    between atoms: N03_3  and  C06_6 
REMARK    4  A    between atoms: C06_6  and  C07_7 
REMARK    5  A    between atoms: C07_7  and  O08_8 
REMARK    6  A    between atoms: O08_8  and  C09_9 
REMARK    7  A    between atoms: C12_12  and  N13_13 
REMARK    8  A    between atoms: N13_13  and  C14_14 
REMARK    9  A    between atoms: C21_21  and  C26_26 
ROOT
HETATM    1  C14   D T 601       8.317   1.707   1.582  1.00 17.92     0.728 A 
HETATM    2  N15   D T 601       9.429   2.157   2.197  1.00 19.07    -0.044 NA
HETATM    3  C16   D T 601      10.667   1.709   1.945  1.00 18.16     0.163 A 
HETATM    4  C17   D T 601      10.812   0.688   1.002  1.00 16.80     0.030 A 
HETATM    5  C18   D T 601       9.659   0.188   0.392  1.00 18.08     0.151 A 
HETATM    6  N19   D T 601       8.450   0.706   0.695  1.00 16.91    -0.074 NA
HETATM    7  C20   D T 601      12.093   0.175   0.721  1.00 17.65     0.034 A 
HETATM    8  C21   D T 601      13.221   0.702   1.371  1.00 18.53     0.047 A 
HETATM    9  C22   D T 601      13.013   1.732   2.321  1.00 19.48     0.260 A 
HETATM   10  O23   D T 601      14.049   2.136   2.891  1.00 21.52    -0.267 OA
HETATM   11  N24   D T 601      11.756   2.236   2.594  1.00 19.49    -0.301 N 
HETATM   12  C25   D T 601      11.520   3.313   3.544  1.00 20.07     0.161 C 
ENDROOT
BRANCH   1  13
HETATM   13  N13   D T 601       7.120   2.231   1.890  1.00 20.14    -0.188 N 
HETATM   14 1H13   D T 601       6.740   1.892   2.653  1.00 24.16     0.184 HD
BRANCH  13  15
HETATM   15  C12   D T 601       6.369   3.193   1.249  1.00 24.69     0.049 A 
HETATM   16  C11   D T 601       6.118   4.390   1.969  1.00 26.89     0.033 A 
HETATM   17  C10   D T 601       5.375   5.436   1.382  1.00 28.95     0.039 A 
HETATM   18  C09   D T 601       4.891   5.300   0.063  1.00 30.95     0.069 A 
HETATM   19  C35   D T 601       5.162   4.125  -0.661  1.00 28.80     0.039 A 
HETATM   20  C34   D T 601       5.886   3.086  -0.064  1.00 26.81     0.033 A 
BRANCH  18  21
HETATM   21  O08   D T 601       4.215   6.302  -0.541  1.00 36.09    -0.350 OA
BRANCH  21  22
HETATM   22  C07   D T 601       3.481   5.921  -1.737  1.00 42.63     0.195 C 
BRANCH  22  23
HETATM   23  C06   D T 601       1.955   6.138  -1.487  1.00 46.85     0.143 C 
BRANCH  23  24
HETATM   24  N03   D T 601       1.063   5.329  -2.402  1.00 51.06    -0.411 N 
BRANCH  24  25
HETATM   25  C02   D T 601       0.538   3.952  -2.007  1.00 53.85     0.112 C 
HETATM   26  C01   D T 601       1.564   2.819  -1.674  1.00 52.69     0.026 C 
ENDBRANCH  24  25
BRANCH  24  27
HETATM   27  C04   D T 601       0.612   6.007  -3.669  1.00 47.80     0.112 C 
HETATM   28  C05   D T 601       1.375   5.699  -4.986  1.00 44.89     0.026 C 
ENDBRANCH  24  27
ENDBRANCH  23  24
ENDBRANCH  22  23
ENDBRANCH  21  22
ENDBRANCH  18  21
ENDBRANCH  13  15
ENDBRANCH   1  13
BRANCH   8  29
HETATM   29  C26   D T 601      14.535   0.210   1.088  1.00 21.63     0.023 A 
HETATM   30  C27   D T 601      15.338   0.838   0.096  1.00 22.75     0.046 A 
HETATM   31 CL28   D T 601      14.731   2.138  -0.795  1.00 22.59    -0.083 Cl
HETATM   32  C29   D T 601      16.646   0.378  -0.208  1.00 24.08     0.025 A 
HETATM   33  C30   D T 601      17.193  -0.702   0.520  1.00 25.63     0.003 A 
HETATM   34  C31   D T 601      16.425  -1.318   1.518  1.00 25.41     0.025 A 
HETATM   35  C32   D T 601      15.109  -0.870   1.799  1.00 23.77     0.046 A 
HETATM   36 CL33   D T 601      14.232  -1.660   3.010  1.00 25.94    -0.083 Cl
ENDBRANCH   8  29
TORSDOF 9
ENDMDL
MODEL 4
REMARK VINA RESULT:    -7.631      5.775     12.484
REMARK INTER + INTRA:         -12.660
REMARK INTER:                 -11.599
REMARK INTRA:                  -1.061
REMARK UNBOUND:                -1.014
REMARK  9 active torsions:
REMARK  status: ('A' for Active; 'I' for Inactive)
REMARK    1  A    between atoms: C02_2  and  N03_3 
REMARK    2  A    between atoms: N03_3  and  C04_4 
REMARK    3  A    between atoms: N03_3  and  C06_6 
REMARK    4  A    between atoms: C06_6  and  C07_7 
REMARK    5  A    between atoms: C07_7  and  O08_8 
REMARK    6  A    between atoms: O08_8  and  C09_9 
REMARK    7  A    between atoms: C12_12  and  N13_13 
REMARK    8  A    between atoms: N13_13  and  C14_14 
REMARK    9  A    between atoms: C21_21  and  C26_26 
ROOT
HETATM    1  C14   D T 601       0.107   2.160  -4.210  1.00 17.92     0.728 A 
HETATM    2  N15   D T 601       1.415   2.442  -4.381  1.00 19.07    -0.044 NA
HETATM    3  C16   D T 601       2.251   2.782  -3.391  1.00 18.16     0.163 A 
HETATM    4  C17   D T 601       1.728   2.878  -2.099  1.00 16.80     0.030 A 
HETATM    5  C18   D T 601       0.365   2.629  -1.921  1.00 18.08     0.151 A 
HETATM    6  N19   D T 601      -0.405   2.280  -2.973  1.00 16.91    -0.074 NA
HETATM    7  C20   D T 601       2.569   3.250  -1.032  1.00 17.65     0.034 A 
HETATM    8  C21   D T 601       3.930   3.504  -1.264  1.00 18.53     0.047 A 
HETATM    9  C22   D T 601       4.404   3.395  -2.594  1.00 19.48     0.260 A 
HETATM   10  O23   D T 601       5.615   3.666  -2.742  1.00 21.52    -0.267 OA
HETATM   11  N24   D T 601       3.579   3.028  -3.640  1.00 19.49    -0.301 N 
HETATM   12  C25   D T 601       4.048   2.883  -5.009  1.00 20.07     0.161 C 
ENDROOT
BRANCH   1  13
HETATM   13  N13   D T 601      -0.648   1.813  -5.264  1.00 20.14    -0.188 N 
HETATM   14 1H13   D T 601      -1.240   2.457  -5.539  1.00 24.16     0.184 HD
BRANCH  13  15
HETATM   15  C12   D T 601      -0.682   0.647  -5.998  1.00 24.69     0.049 A 
HETATM   16  C11   D T 601       0.136  -0.418  -5.540  1.00 26.89     0.033 A 
HETATM   17  C10   D T 601       0.148  -1.656  -6.220  1.00 28.95     0.039 A 
HETATM   18  C09   D T 601      -0.671  -1.842  -7.354  1.00 30.95     0.069 A 
HETATM   19  C35   D T 601      -1.502  -0.795  -7.793  1.00 28.80     0.039 A 
HETATM   20  C34   D T 601      -1.495   0.433  -7.123  1.00 26.81     0.033 A 
BRANCH  18  21
HETATM   21  O08   D T 601      -0.714  -3.029  -7.998  1.00 36.09    -0.350 OA
BRANCH  21  22
HETATM   22  C07   D T 601      -0.844  -4.195  -7.138  1.00 42.63     0.195 C 
BRANCH  22  23
HETATM   23  C06   D T 601      -2.290  -4.236  -6.553  1.00 46.85     0.143 C 
BRANCH  23  24
HETATM   24  N03   D T 601      -3.040  -5.513  -6.859  1.00 51.06    -0.411 N 
BRANCH  24  25
HETATM   25  C02   D T 601      -3.730  -6.326  -5.768  1.00 53.85     0.112 C 
HETATM   26  C01   D T 601      -3.792  -7.882  -5.909  1.00 52.69     0.026 C 
ENDBRANCH  24  25
BRANCH  24  27
HETATM   27  C04   D T 601      -3.181  -5.875  -8.315  1.00 47.80     0.112 C 
HETATM   28  C05   D T 601      -3.699  -4.791  -9.300  1.00 44.89     0.026 C 
ENDBRANCH  24  27
ENDBRANCH  23  24
ENDBRANCH  22  23
ENDBRANCH  21  22
ENDBRANCH  18  21
ENDBRANCH  13  15
ENDBRANCH   1  13
BRANCH   8  29
HETATM   29  C26   D T 601       4.808   3.865  -0.191  1.00 21.63     0.023 A 
HETATM   30  C27   D T 601       4.866   5.210   0.266  1.00 22.75     0.046 A 
HETATM   31 CL28   D T 601       3.939   6.406  -0.483  1.00 22.59    -0.083 Cl
HETATM   32  C29   D T 601       5.722   5.602   1.329  1.00 24.08     0.025 A 
HETATM   33  C30   D T 601       6.507   4.629   1.987  1.00 25.63     0.003 A 
HETATM   34  C31   D T 601       6.445   3.293   1.565  1.00 25.41     0.025 A 
HETATM   35  C32   D T 601       5.607   2.914   0.487  1.00 23.77     0.046 A 
HETATM   36 CL33   D T 601       5.583   1.288   0.021  1.00 25.94    -0.083 Cl
ENDBRANCH   8  29
TORSDOF 9
ENDMDL
MODEL 5
REMARK VINA RESULT:    -7.593      5.764     12.710
REMARK INTER + INTRA:         -12.603
REMARK INTER:                 -10.968
REMARK INTRA:                  -1.635
REMARK UNBOUND:                -1.014
REMARK  9 active torsions:
REMARK  status: ('A' for Active; 'I' for Inactive)
REMARK    1  A    between atoms: C02_2  and  N03_3 
REMARK    2  A    between atoms: N03_3  and  C04_4 
REMARK    3  A    between atoms: N03_3  and  C06_6 
REMARK    4  A    between atoms: C06_6  and  C07_7 
REMARK    5  A    between atoms: C07_7  and  O08_8 
REMARK    6  A    between atoms: O08_8  and  C09_9 
REMARK    7  A    between atoms: C12_12  and  N13_13 
REMARK    8  A    between atoms: N13_13  and  C14_14 
REMARK    9  A    between atoms: C21_21  and  C26_26 
ROOT
HETATM    1  C14   D T 601      -0.053   2.211  -4.320  1.00 17.92     0.728 A 
HETATM    2  N15   D T 601       1.253   2.497  -4.499  1.00 19.07    -0.044 NA
HETATM    3  C16   D T 601       2.106   2.790  -3.509  1.00 18.16     0.163 A 
HETATM    4  C17   D T 601       1.604   2.829  -2.206  1.00 16.80     0.030 A 
HETATM    5  C18   D T 601       0.244   2.576  -2.017  1.00 18.08     0.151 A 
HETATM    6  N19   D T 601      -0.545   2.275  -3.071  1.00 16.91    -0.074 NA
HETATM    7  C20   D T 601       2.463   3.151  -1.137  1.00 17.65     0.034 A 
HETATM    8  C21   D T 601       3.821   3.412  -1.379  1.00 18.53     0.047 A 
HETATM    9  C22   D T 601       4.273   3.363  -2.721  1.00 19.48     0.260 A 
HETATM   10  O23   D T 601       5.482   3.638  -2.876  1.00 21.52    -0.267 OA
HETATM   11  N24   D T 601       3.430   3.044  -3.768  1.00 19.49    -0.301 N 
HETATM   12  C25   D T 601       3.877   2.960  -5.150  1.00 20.07     0.161 C 
ENDROOT
BRANCH   1  13
HETATM   13  N13   D T 601      -0.826   1.912  -5.376  1.00 20.14    -0.188 N 
HETATM   14 1H13   D T 601      -1.573   2.437  -5.463  1.00 24.16     0.184 HD
BRANCH  13  15
HETATM   15  C12   D T 601      -0.683   0.946  -6.348  1.00 24.69     0.049 A 
HETATM   16  C11   D T 601      -0.276   1.390  -7.633  1.00 26.89     0.033 A 
HETATM   17  C10   D T 601      -0.085   0.467  -8.683  1.00 28.95     0.039 A 
HETATM   18  C09   D T 601      -0.284  -0.912  -8.452  1.00 30.95     0.069 A 
HETATM   19  C35   D T 601      -0.661  -1.356  -7.171  1.00 28.80     0.039 A 
HETATM   20  C34   D T 601      -0.864  -0.431  -6.141  1.00 26.81     0.033 A 
BRANCH  18  21
HETATM   21  O08   D T 601      -0.065  -1.823  -9.425  1.00 36.09    -0.350 OA
BRANCH  21  22
HETATM   22  C07   D T 601      -1.160  -2.751  -9.661  1.00 42.63     0.195 C 
BRANCH  22  23
HETATM   23  C06   D T 601      -2.118  -2.145 -10.734  1.00 46.85     0.143 C 
BRANCH  23  24
HETATM   24  N03   D T 601      -3.343  -1.474 -10.154  1.00 51.06    -0.411 N 
BRANCH  24  25
HETATM   25  C02   D T 601      -3.510   0.042 -10.154  1.00 53.85     0.112 C 
HETATM   26  C01   D T 601      -3.837   0.767  -8.808  1.00 52.69     0.026 C 
ENDBRANCH  24  25
BRANCH  24  27
HETATM   27  C04   D T 601      -4.450  -2.385  -9.692  1.00 47.80     0.112 C 
HETATM   28  C05   D T 601      -5.823  -2.308 -10.414  1.00 44.89     0.026 C 
ENDBRANCH  24  27
ENDBRANCH  23  24
ENDBRANCH  22  23
ENDBRANCH  21  22
ENDBRANCH  18  21
ENDBRANCH  13  15
ENDBRANCH   1  13
BRANCH   8  29
HETATM   29  C26   D T 601       4.718   3.723  -0.306  1.00 21.63     0.023 A 
HETATM   30  C27   D T 601       5.518   2.703   0.278  1.00 22.75     0.046 A 
HETATM   31 CL28   D T 601       5.383   1.105  -0.250  1.00 22.59    -0.083 Cl
HETATM   32  C29   D T 601       6.419   2.977   1.341  1.00 24.08     0.025 A 
HETATM   33  C30   D T 601       6.567   4.303   1.806  1.00 25.63     0.003 A 
HETATM   34  C31   D T 601       5.803   5.326   1.225  1.00 25.41     0.025 A 
HETATM   35  C32   D T 601       4.887   5.040   0.181  1.00 23.77     0.046 A 
HETATM   36 CL33   D T 601       3.990   6.317  -0.472  1.00 25.94    -0.083 Cl
ENDBRANCH   8  29
TORSDOF 9
ENDMDL
MODEL 6
REMARK VINA RESULT:    -7.546      2.598      4.053
REMARK INTER + INTRA:         -12.531
REMARK INTER:                 -11.585
REMARK INTRA:                  -0.947
REMARK UNBOUND:                -1.014
REMARK  9 active torsions:
REMARK  status: ('A' for Active; 'I' for Inactive)
REMARK    1  A    between atoms: C02_2  and  N03_3 
REMARK    2  A    between atoms: N03_3  and  C04_4 
REMARK    3  A    between atoms: N03_3  and  C06_6 
REMARK    4  A    between atoms: C06_6  and  C07_7 
REMARK    5  A    between atoms: C07_7  and  O08_8 
REMARK    6  A    between atoms: O08_8  and  C09_9 
REMARK    7  A    between atoms: C12_12  and  N13_13 
REMARK    8  A    between atoms: N13_13  and  C14_14 
REMARK    9  A    between atoms: C21_21  and  C26_26 
ROOT
HETATM    1  C14   D T 601       6.673   2.579   1.097  1.00 17.92     0.728 A 
HETATM    2  N15   D T 601       5.811   1.917   0.298  1.00 19.07    -0.044 NA
HETATM    3  C16   D T 601       4.971   2.509  -0.562  1.00 18.16     0.163 A 
HETATM    4  C17   D T 601       4.967   3.905  -0.615  1.00 16.80     0.030 A 
HETATM    5  C18   D T 601       5.826   4.598   0.241  1.00 18.08     0.151 A 
HETATM    6  N19   D T 601       6.651   3.922   1.069  1.00 16.91    -0.074 NA
HETATM    7  C20   D T 601       4.085   4.567  -1.491  1.00 17.65     0.034 A 
HETATM    8  C21   D T 601       3.230   3.826  -2.322  1.00 18.53     0.047 A 
HETATM    9  C22   D T 601       3.274   2.414  -2.223  1.00 19.48     0.260 A 
HETATM   10  O23   D T 601       2.466   1.812  -2.961  1.00 21.52    -0.267 OA
HETATM   11  N24   D T 601       4.140   1.765  -1.364  1.00 19.49    -0.301 N 
HETATM   12  C25   D T 601       4.224   0.317  -1.264  1.00 20.07     0.161 C 
ENDROOT
BRANCH   1  13
HETATM   13  N13   D T 601       7.489   1.896   1.915  1.00 20.14    -0.188 N 
HETATM   14 1H13   D T 601       7.096   1.601   2.689  1.00 24.16     0.184 HD
BRANCH  13  15
HETATM   15  C12   D T 601       8.821   1.567   1.783  1.00 24.69     0.049 A 
HETATM   16  C11   D T 601       9.135   0.533   0.864  1.00 26.89     0.033 A 
HETATM   17  C10   D T 601      10.475   0.144   0.652  1.00 28.95     0.039 A 
HETATM   18  C09   D T 601      11.515   0.800   1.346  1.00 30.95     0.069 A 
HETATM   19  C35   D T 601      11.207   1.844   2.237  1.00 28.80     0.039 A 
HETATM   20  C34   D T 601       9.874   2.210   2.454  1.00 26.81     0.033 A 
BRANCH  18  21
HETATM   21  O08   D T 601      12.810   0.481   1.129  1.00 36.09    -0.350 OA
BRANCH  21  22
HETATM   22  C07   D T 601      13.030  -0.787   0.452  1.00 42.63     0.195 C 
BRANCH  22  23
HETATM   23  C06   D T 601      13.505  -1.845   1.496  1.00 46.85     0.143 C 
BRANCH  23  24
HETATM   24  N03   D T 601      12.409  -2.770   1.975  1.00 51.06    -0.411 N 
BRANCH  24  25
HETATM   25  C02   D T 601      11.848  -3.881   1.092  1.00 53.85     0.112 C 
HETATM   26  C01   D T 601      10.521  -3.623   0.305  1.00 52.69     0.026 C 
ENDBRANCH  24  25
BRANCH  24  27
HETATM   27  C04   D T 601      11.989  -2.624   3.414  1.00 47.80     0.112 C 
HETATM   28  C05   D T 601      10.679  -1.851   3.728  1.00 44.89     0.026 C 
ENDBRANCH  24  27
ENDBRANCH  23  24
ENDBRANCH  22  23
ENDBRANCH  21  22
ENDBRANCH  18  21
ENDBRANCH  13  15
ENDBRANCH   1  13
BRANCH   8  29
HETATM   29  C26   D T 601       2.339   4.477  -3.235  1.00 21.63     0.023 A 
HETATM   30  C27   D T 601       1.311   5.331  -2.748  1.00 22.75     0.046 A 
HETATM   31 CL28   D T 601       1.095   5.545  -1.087  1.00 22.59    -0.083 Cl
HETATM   32  C29   D T 601       0.413   5.994  -3.625  1.00 24.08     0.025 A 
HETATM   33  C30   D T 601       0.565   5.848  -5.022  1.00 25.63     0.003 A 
HETATM   34  C31   D T 601       1.589   5.029  -5.521  1.00 25.41     0.025 A 
HETATM   35  C32   D T 601       2.466   4.350  -4.638  1.00 23.77     0.046 A 
HETATM   36 CL33   D T 601       3.675   3.371  -5.303  1.00 25.94    -0.083 Cl
ENDBRANCH   8  29
TORSDOF 9
ENDMDL
MODEL 7
REMARK VINA RESULT:    -7.537      5.783     12.486
REMARK INTER + INTRA:         -12.517
REMARK INTER:                 -11.177
REMARK INTRA:                  -1.340
REMARK UNBOUND:                -1.014
REMARK  9 active torsions:
REMARK  status: ('A' for Active; 'I' for Inactive)
REMARK    1  A    between atoms: C02_2  and  N03_3 
REMARK    2  A    between atoms: N03_3  and  C04_4 
REMARK    3  A    between atoms: N03_3  and  C06_6 
REMARK    4  A    between atoms: C06_6  and  C07_7 
REMARK    5  A    between atoms: C07_7  and  O08_8 
REMARK    6  A    between atoms: O08_8  and  C09_9 
REMARK    7  A    between atoms: C12_12  and  N13_13 
REMARK    8  A    between atoms: N13_13  and  C14_14 
REMARK    9  A    between atoms: C21_21  and  C26_26 
ROOT
HETATM    1  C14   D T 601      -0.022   2.155  -4.405  1.00 17.92     0.728 A 
HETATM    2  N15   D T 601       1.279   2.471  -4.567  1.00 19.07    -0.044 NA
HETATM    3  C16   D T 601       2.117   2.764  -3.564  1.00 18.16     0.163 A 
HETATM    4  C17   D T 601       1.603   2.769  -2.265  1.00 16.80     0.030 A 
HETATM    5  C18   D T 601       0.246   2.484  -2.094  1.00 18.08     0.151 A 
HETATM    6  N19   D T 601      -0.526   2.187  -3.160  1.00 16.91    -0.074 NA
HETATM    7  C20   D T 601       2.445   3.090  -1.182  1.00 17.65     0.034 A 
HETATM    8  C21   D T 601       3.800   3.383  -1.407  1.00 18.53     0.047 A 
HETATM    9  C22   D T 601       4.265   3.367  -2.745  1.00 19.48     0.260 A 
HETATM   10  O23   D T 601       5.468   3.670  -2.885  1.00 21.52    -0.267 OA
HETATM   11  N24   D T 601       3.438   3.050  -3.806  1.00 19.49    -0.301 N 
HETATM   12  C25   D T 601       3.898   3.000  -5.185  1.00 20.07     0.161 C 
ENDROOT
BRANCH   1  13
HETATM   13  N13   D T 601      -0.779   1.859  -5.474  1.00 20.14    -0.188 N 
HETATM   14 1H13   D T 601      -1.374   2.515  -5.714  1.00 24.16     0.184 HD
BRANCH  13  15
HETATM   15  C12   D T 601      -0.812   0.733  -6.267  1.00 24.69     0.049 A 
HETATM   16  C11   D T 601      -0.493  -0.499  -5.638  1.00 26.89     0.033 A 
HETATM   17  C10   D T 601      -0.521  -1.706  -6.370  1.00 28.95     0.039 A 
HETATM   18  C09   D T 601      -0.885  -1.692  -7.734  1.00 30.95     0.069 A 
HETATM   19  C35   D T 601      -1.227  -0.475  -8.351  1.00 28.80     0.039 A 
HETATM   20  C34   D T 601      -1.180   0.718  -7.621  1.00 26.81     0.033 A 
BRANCH  18  21
HETATM   21  O08   D T 601      -0.965  -2.836  -8.448  1.00 36.09    -0.350 OA
BRANCH  21  22
HETATM   22  C07   D T 601      -2.153  -2.967  -9.276  1.00 42.63     0.195 C 
BRANCH  22  23
HETATM   23  C06   D T 601      -3.229  -3.784  -8.495  1.00 46.85     0.143 C 
BRANCH  23  24
HETATM   24  N03   D T 601      -2.703  -5.061  -7.879  1.00 51.06    -0.411 N 
BRANCH  24  25
HETATM   25  C02   D T 601      -2.118  -6.185  -8.729  1.00 53.85     0.112 C 
HETATM   26  C01   D T 601      -0.810  -6.895  -8.248  1.00 52.69     0.026 C 
ENDBRANCH  24  25
BRANCH  24  27
HETATM   27  C04   D T 601      -2.666  -5.114  -6.375  1.00 47.80     0.112 C 
HETATM   28  C05   D T 601      -3.622  -6.097  -5.644  1.00 44.89     0.026 C 
ENDBRANCH  24  27
ENDBRANCH  23  24
ENDBRANCH  22  23
ENDBRANCH  21  22
ENDBRANCH  18  21
ENDBRANCH  13  15
ENDBRANCH   1  13
BRANCH   8  29
HETATM   29  C26   D T 601       4.679   3.693  -0.321  1.00 21.63     0.023 A 
HETATM   30  C27   D T 601       5.485   2.676   0.262  1.00 22.75     0.046 A 
HETATM   31 CL28   D T 601       5.376   1.082  -0.286  1.00 22.59    -0.083 Cl
HETATM   32  C29   D T 601       6.370   2.949   1.338  1.00 24.08     0.025 A 
HETATM   33  C30   D T 601       6.497   4.271   1.819  1.00 25.63     0.003 A 
HETATM   34  C31   D T 601       5.727   5.291   1.241  1.00 25.41     0.025 A 
HETATM   35  C32   D T 601       4.827   5.006   0.183  1.00 23.77     0.046 A 
HETATM   36 CL33   D T 601       3.922   6.279  -0.466  1.00 25.94    -0.083 Cl
ENDBRANCH   8  29
TORSDOF 9
ENDMDL
MODEL 8
REMARK VINA RESULT:    -7.537      6.229     10.124
REMARK INTER + INTRA:         -12.517
REMARK INTER:                 -10.737
REMARK INTRA:                  -1.780
REMARK UNBOUND:                -1.014
REMARK  9 active torsions:
REMARK  status: ('A' for Active; 'I' for Inactive)
REMARK    1  A    between atoms: C02_2  and  N03_3 
REMARK    2  A    between atoms: N03_3  and  C04_4 
REMARK    3  A    between atoms: N03_3  and  C06_6 
REMARK    4  A    between atoms: C06_6  and  C07_7 
REMARK    5  A    between atoms: C07_7  and  O08_8 
REMARK    6  A    between atoms: O08_8  and  C09_9 
REMARK    7  A    between atoms: C12_12  and  N13_13 
REMARK    8  A    between atoms: N13_13  and  C14_14 
REMARK    9  A    between atoms: C21_21  and  C26_26 
ROOT
HETATM    1  C14   D T 601       1.607  -0.434  -4.250  1.00 17.92     0.728 A 
HETATM    2  N15   D T 601       2.861  -0.493  -3.756  1.00 19.07    -0.044 NA
HETATM    3  C16   D T 601       3.861  -1.187  -4.315  1.00 18.16     0.163 A 
HETATM    4  C17   D T 601       3.582  -1.922  -5.469  1.00 16.80     0.030 A 
HETATM    5  C18   D T 601       2.274  -1.900  -5.961  1.00 18.08     0.151 A 
HETATM    6  N19   D T 601       1.327  -1.163  -5.344  1.00 16.91    -0.074 NA
HETATM    7  C20   D T 601       4.601  -2.681  -6.077  1.00 17.65     0.034 A 
HETATM    8  C21   D T 601       5.896  -2.681  -5.536  1.00 18.53     0.047 A 
HETATM    9  C22   D T 601       6.121  -1.922  -4.362  1.00 19.48     0.260 A 
HETATM   10  O23   D T 601       7.283  -1.990  -3.909  1.00 21.52    -0.267 OA
HETATM   11  N24   D T 601       5.121  -1.176  -3.767  1.00 19.49    -0.301 N 
HETATM   12  C25   D T 601       5.334  -0.366  -2.578  1.00 20.07     0.161 C 
ENDROOT
BRANCH   1  13
HETATM   13  N13   D T 601       0.674   0.304  -3.627  1.00 20.14    -0.188 N 
HETATM   14 1H13   D T 601      -0.091  -0.151  -3.410  1.00 24.16     0.184 HD
BRANCH  13  15
HETATM   15  C12   D T 601       0.677   1.633  -3.264  1.00 24.69     0.049 A 
HETATM   16  C11   D T 601       0.816   2.580  -4.312  1.00 26.89     0.033 A 
HETATM   17  C10   D T 601       0.809   3.964  -4.033  1.00 28.95     0.039 A 
HETATM   18  C09   D T 601       0.646   4.412  -2.704  1.00 30.95     0.069 A 
HETATM   19  C35   D T 601       0.481   3.475  -1.668  1.00 28.80     0.039 A 
HETATM   20  C34   D T 601       0.507   2.105  -1.953  1.00 26.81     0.033 A 
BRANCH  18  21
HETATM   21  O08   D T 601       0.590   5.730  -2.413  1.00 36.09    -0.350 OA
BRANCH  21  22
HETATM   22  C07   D T 601       1.476   6.166  -1.344  1.00 42.63     0.195 C 
BRANCH  22  23
HETATM   23  C06   D T 601       2.951   6.113  -1.854  1.00 46.85     0.143 C 
BRANCH  23  24
HETATM   24  N03   D T 601       3.902   5.414  -0.908  1.00 51.06    -0.411 N 
BRANCH  24  25
HETATM   25  C02   D T 601       4.506   6.125   0.299  1.00 53.85     0.112 C 
HETATM   26  C01   D T 601       5.488   5.336   1.228  1.00 52.69     0.026 C 
ENDBRANCH  24  25
BRANCH  24  27
HETATM   27  C04   D T 601       4.121   3.943  -1.144  1.00 47.80     0.112 C 
HETATM   28  C05   D T 601       4.234   3.436  -2.608  1.00 44.89     0.026 C 
ENDBRANCH  24  27
ENDBRANCH  23  24
ENDBRANCH  22  23
ENDBRANCH  21  22
ENDBRANCH  18  21
ENDBRANCH  13  15
ENDBRANCH   1  13
BRANCH   8  29
HETATM   29  C26   D T 601       6.953  -3.430  -6.148  1.00 21.63     0.023 A 
HETATM   30  C27   D T 601       7.857  -2.794  -7.042  1.00 22.75     0.046 A 
HETATM   31 CL28   D T 601       7.666  -1.162  -7.432  1.00 22.59    -0.083 Cl
HETATM   32  C29   D T 601       8.918  -3.505  -7.663  1.00 24.08     0.025 A 
HETATM   33  C30   D T 601       9.117  -4.869  -7.357  1.00 25.63     0.003 A 
HETATM   34  C31   D T 601       8.249  -5.507  -6.459  1.00 25.41     0.025 A 
HETATM   35  C32   D T 601       7.177  -4.797  -5.861  1.00 23.77     0.046 A 
HETATM   36 CL33   D T 601       6.161  -5.625  -4.793  1.00 25.94    -0.083 Cl
ENDBRANCH   8  29
TORSDOF 9
ENDMDL
MODEL 9
REMARK VINA RESULT:    -7.494      1.644      2.718
REMARK INTER + INTRA:         -12.452
REMARK INTER:                 -11.923
REMARK INTRA:                  -0.529
REMARK UNBOUND:                -1.014
REMARK  9 active torsions:
REMARK  status: ('A' for Active; 'I' for Inactive)
REMARK    1  A    between atoms: C02_2  and  N03_3 
REMARK    2  A    between atoms: N03_3  and  C04_4 
REMARK    3  A    between atoms: N03_3  and  C06_6 
REMARK    4  A    between atoms: C06_6  and  C07_7 
REMARK    5  A    between atoms: C07_7  and  O08_8 
REMARK    6  A    between atoms: O08_8  and  C09_9 
REMARK    7  A    between atoms: C12_12  and  N13_13 
REMARK    8  A    between atoms: N13_13  and  C14_14 
REMARK    9  A    between atoms: C21_21  and  C26_26 
ROOT
HETATM    1  C14   D T 601       6.863   2.448   1.100  1.00 17.92     0.728 A 
HETATM    2  N15   D T 601       5.976   1.790   0.325  1.00 19.07    -0.044 NA
HETATM    3  C16   D T 601       5.114   2.384  -0.510  1.00 18.16     0.163 A 
HETATM    4  C17   D T 601       5.114   3.780  -0.563  1.00 16.80     0.030 A 
HETATM    5  C18   D T 601       6.000   4.470   0.268  1.00 18.08     0.151 A 
HETATM    6  N19   D T 601       6.845   3.791   1.073  1.00 16.91    -0.074 NA
HETATM    7  C20   D T 601       4.210   4.446  -1.414  1.00 17.65     0.034 A 
HETATM    8  C21   D T 601       3.329   3.708  -2.221  1.00 18.53     0.047 A 
HETATM    9  C22   D T 601       3.370   2.296  -2.122  1.00 19.48     0.260 A 
HETATM   10  O23   D T 601       2.540   1.697  -2.837  1.00 21.52    -0.267 OA
HETATM   11  N24   D T 601       4.259   1.644  -1.288  1.00 19.49    -0.301 N 
HETATM   12  C25   D T 601       4.339   0.195  -1.191  1.00 20.07     0.161 C 
ENDROOT
BRANCH   1  13
HETATM   13  N13   D T 601       7.699   1.762   1.894  1.00 20.14    -0.188 N 
HETATM   14 1H13   D T 601       7.307   1.396   2.638  1.00 24.16     0.184 HD
BRANCH  13  15
HETATM   15  C12   D T 601       9.051   1.519   1.778  1.00 24.69     0.049 A 
HETATM   16  C11   D T 601       9.442   0.534   0.834  1.00 26.89     0.033 A 
HETATM   17  C10   D T 601      10.807   0.235   0.635  1.00 28.95     0.039 A 
HETATM   18  C09   D T 601      11.793   0.932   1.366  1.00 30.95     0.069 A 
HETATM   19  C35   D T 601      11.407   1.927   2.282  1.00 28.80     0.039 A 
HETATM   20  C34   D T 601      10.051   2.205   2.485  1.00 26.81     0.033 A 
BRANCH  18  21
HETATM   21  O08   D T 601      13.109   0.699   1.164  1.00 36.09    -0.350 OA
BRANCH  21  22
HETATM   22  C07   D T 601      14.010   1.643   1.806  1.00 42.63     0.195 C 
BRANCH  22  23
HETATM   23  C06   D T 601      14.649   2.558   0.714  1.00 46.85     0.143 C 
BRANCH  23  24
HETATM   24  N03   D T 601      15.325   1.797  -0.405  1.00 51.06    -0.411 N 
BRANCH  24  25
HETATM   25  C02   D T 601      14.755   1.766  -1.820  1.00 53.85     0.112 C 
HETATM   26  C01   D T 601      13.843   0.567  -2.241  1.00 52.69     0.026 C 
ENDBRANCH  24  25
BRANCH  24  27
HETATM   27  C04   D T 601      16.660   1.177  -0.083  1.00 47.80     0.112 C 
HETATM   28  C05   D T 601      17.691   1.002  -1.231  1.00 44.89     0.026 C 
ENDBRANCH  24  27
ENDBRANCH  23  24
ENDBRANCH  22  23
ENDBRANCH  21  22
ENDBRANCH  18  21
ENDBRANCH  13  15
ENDBRANCH   1  13
BRANCH   8  29
HETATM   29  C26   D T 601       2.415   4.363  -3.108  1.00 21.63     0.023 A 
HETATM   30  C27   D T 601       1.404   5.220  -2.592  1.00 22.75     0.046 A 
HETATM   31 CL28   D T 601       1.237   5.435  -0.926  1.00 22.59    -0.083 Cl
HETATM   32  C29   D T 601       0.484   5.887  -3.444  1.00 24.08     0.025 A 
HETATM   33  C30   D T 601       0.596   5.739  -4.844  1.00 25.63     0.003 A 
HETATM   34  C31   D T 601       1.602   4.917  -5.372  1.00 25.41     0.025 A 
HETATM   35  C32   D T 601       2.502   4.234  -4.514  1.00 23.77     0.046 A 
HETATM   36 CL33   D T 601       3.688   3.251  -5.213  1.00 25.94    -0.083 Cl
ENDBRANCH   8  29
TORSDOF 9
ENDMDL
