MODEL 1
REMARK VINA RESULT:    -7.436      0.000      0.000
REMARK INTER + INTRA:         -12.299
REMARK INTER:                 -11.349
REMARK INTRA:                  -0.950
REMARK UNBOUND:                -0.950
REMARK  9 active torsions:
REMARK  status: ('A' for Active; 'I' for Inactive)
REMARK    1  A    between atoms: C02_2  and  N03_3 
REMARK    2  A    between atoms: N03_3  and  C04_4 
REMARK    3  A    between atoms: N03_3  and  C06_6 
REMARK    4  A    between atoms: C06_6  and  C07_7 
REMARK    5  A    between atoms: C07_7  and  O08_8 
REMARK    6  A    between atoms: O08_8  and  C09_9 
REMARK    7  A    between atoms: C12_12  and  N13_13 
REMARK    8  A    between atoms: N13_13  and  C14_14 
REMARK    9  A    between atoms: C21_21  and  C26_26 
ROOT
HETATM    1  C14   D T 601       1.730   8.344   5.827  1.00 17.92     0.728 A 
HETATM    2  N15   D T 601       2.939   7.793   5.598  1.00 19.07    -0.044 NA
HETATM    3  C16   D T 601       3.964   8.432   5.016  1.00 18.16     0.163 A 
HETATM    4  C17   D T 601       3.756   9.747   4.592  1.00 16.80     0.030 A 
HETATM    5  C18   D T 601       2.492  10.309   4.787  1.00 18.08     0.151 A 
HETATM    6  N19   D T 601       1.519   9.599   5.394  1.00 16.91    -0.074 NA
HETATM    7  C20   D T 601       4.800  10.449   3.958  1.00 17.65     0.034 A 
HETATM    8  C21   D T 601       6.049   9.836   3.772  1.00 18.53     0.047 A 
HETATM    9  C22   D T 601       6.202   8.500   4.218  1.00 19.48     0.260 A 
HETATM   10  O23   D T 601       7.322   7.997   3.993  1.00 21.52    -0.267 OA
HETATM   11  N24   D T 601       5.176   7.813   4.841  1.00 19.49    -0.301 N 
HETATM   12  C25   D T 601       5.317   6.451   5.331  1.00 20.07     0.161 C 
ENDROOT
BRANCH   1  13
HETATM   13  N13   D T 601       0.771   7.627   6.434  1.00 20.14    -0.188 N 
HETATM   14 1H13   D T 601      -0.080   7.807   6.144  1.00 24.16     0.184 HD
BRANCH  13  15
HETATM   15  C12   D T 601       0.856   6.668   7.420  1.00 24.69     0.049 A 
HETATM   16  C11   D T 601       1.950   6.772   8.318  1.00 26.89     0.033 A 
HETATM   17  C10   D T 601       2.105   5.844   9.370  1.00 28.95     0.039 A 
HETATM   18  C09   D T 601       1.154   4.814   9.543  1.00 30.95     0.069 A 
HETATM   19  C35   D T 601       0.055   4.727   8.670  1.00 28.80     0.039 A 
HETATM   20  C34   D T 601      -0.080   5.641   7.620  1.00 26.81     0.033 A 
BRANCH  18  21
HETATM   21  O08   D T 601       1.252   3.938  10.567  1.00 36.09    -0.350 OA
BRANCH  21  22
HETATM   22  C07   D T 601       2.386   3.032  10.500  1.00 42.63     0.195 C 
BRANCH  22  23
HETATM   23  C06   D T 601       3.555   3.618  11.355  1.00 46.85     0.143 C 
BRANCH  23  24
HETATM   24  N03   D T 601       4.930   3.240  10.854  1.00 51.06    -0.411 N 
BRANCH  24  25
HETATM   25  C02   D T 601       6.004   2.687  11.787  1.00 53.85     0.112 C 
HETATM   26  C01   D T 601       6.084   3.228  13.252  1.00 52.69     0.026 C 
ENDBRANCH  24  25
BRANCH  24  27
HETATM   27  C04   D T 601       5.147   3.313   9.366  1.00 47.80     0.112 C 
HETATM   28  C05   D T 601       5.573   4.672   8.745  1.00 44.89     0.026 C 
ENDBRANCH  24  27
ENDBRANCH  23  24
ENDBRANCH  22  23
ENDBRANCH  21  22
ENDBRANCH  18  21
ENDBRANCH  13  15
ENDBRANCH   1  13
BRANCH   8  29
HETATM   29  C26   D T 601       7.131  10.536   3.148  1.00 21.63     0.023 A 
HETATM   30  C27   D T 601       7.222  10.598   1.730  1.00 22.75     0.046 A 
HETATM   31 CL28   D T 601       6.085   9.803   0.768  1.00 22.59    -0.083 Cl
HETATM   32  C29   D T 601       8.280  11.286   1.078  1.00 24.08     0.025 A 
HETATM   33  C30   D T 601       9.245  11.971   1.849  1.00 25.63     0.003 A 
HETATM   34  C31   D T 601       9.158  11.940   3.248  1.00 25.41     0.025 A 
HETATM   35  C32   D T 601       8.113  11.231   3.892  1.00 23.77     0.046 A 
HETATM   36 CL33   D T 601       8.068  11.226   5.583  1.00 25.94    -0.083 Cl
ENDBRANCH   8  29
TORSDOF 9
ENDMDL
MODEL 2
REMARK VINA RESULT:    -7.354      0.132      1.534
REMARK INTER + INTRA:         -12.174
REMARK INTER:                 -11.335
REMARK INTRA:                  -0.839
REMARK UNBOUND:                -0.950
REMARK  9 active torsions:
REMARK  status: ('A' for Active; 'I' for Inactive)
REMARK    1  A    between atoms: C02_2  and  N03_3 
REMARK    2  A    between atoms: N03_3  and  C04_4 
REMARK    3  A    between atoms: N03_3  and  C06_6 
REMARK    4  A    between atoms: C06_6  and  C07_7 
REMARK    5  A    between atoms: C07_7  and  O08_8 
REMARK    6  A    between atoms: O08_8  and  C09_9 
REMARK    7  A    between atoms: C12_12  and  N13_13 
REMARK    8  A    between atoms: N13_13  and  C14_14 
REMARK    9  A    between atoms: C21_21  and  C26_26 
ROOT
HETATM    1  C14   D T 601       1.697   8.436   5.745  1.00 17.92     0.728 A 
HETATM    2  N15   D T 601       2.911   7.889   5.541  1.00 19.07    -0.044 NA
HETATM    3  C16   D T 601       3.938   8.521   4.957  1.00 18.16     0.163 A 
HETATM    4  C17   D T 601       3.727   9.825   4.502  1.00 16.80     0.030 A 
HETATM    5  C18   D T 601       2.457  10.383   4.671  1.00 18.08     0.151 A 
HETATM    6  N19   D T 601       1.482   9.680   5.282  1.00 16.91    -0.074 NA
HETATM    7  C20   D T 601       4.773  10.519   3.864  1.00 17.65     0.034 A 
HETATM    8  C21   D T 601       6.029   9.911   3.705  1.00 18.53     0.047 A 
HETATM    9  C22   D T 601       6.184   8.586   4.181  1.00 19.48     0.260 A 
HETATM   10  O23   D T 601       7.310   8.085   3.980  1.00 21.52    -0.267 OA
HETATM   11  N24   D T 601       5.156   7.905   4.808  1.00 19.49    -0.301 N 
HETATM   12  C25   D T 601       5.300   6.556   5.330  1.00 20.07     0.161 C 
ENDROOT
BRANCH   1  13
HETATM   13  N13   D T 601       0.735   7.727   6.357  1.00 20.14    -0.188 N 
HETATM   14 1H13   D T 601      -0.118   7.923   6.082  1.00 24.16     0.184 HD
BRANCH  13  15
HETATM   15  C12   D T 601       0.819   6.755   7.330  1.00 24.69     0.049 A 
HETATM   16  C11   D T 601       1.910   6.849   8.232  1.00 26.89     0.033 A 
HETATM   17  C10   D T 601       2.064   5.906   9.272  1.00 28.95     0.039 A 
HETATM   18  C09   D T 601       1.115   4.872   9.428  1.00 30.95     0.069 A 
HETATM   19  C35   D T 601       0.018   4.795   8.551  1.00 28.80     0.039 A 
HETATM   20  C34   D T 601      -0.116   5.723   7.513  1.00 26.81     0.033 A 
BRANCH  18  21
HETATM   21  O08   D T 601       1.212   3.983  10.440  1.00 36.09    -0.350 OA
BRANCH  21  22
HETATM   22  C07   D T 601       2.383   3.122  10.399  1.00 42.63     0.195 C 
BRANCH  22  23
HETATM   23  C06   D T 601       3.492   3.732  11.313  1.00 46.85     0.143 C 
BRANCH  23  24
HETATM   24  N03   D T 601       4.895   3.308  10.941  1.00 51.06    -0.411 N 
BRANCH  24  25
HETATM   25  C02   D T 601       5.876   2.769  11.979  1.00 53.85     0.112 C 
HETATM   26  C01   D T 601       6.003   3.506  13.352  1.00 52.69     0.026 C 
ENDBRANCH  24  25
BRANCH  24  27
HETATM   27  C04   D T 601       5.233   3.319   9.474  1.00 47.80     0.112 C 
HETATM   28  C05   D T 601       5.469   4.688   8.778  1.00 44.89     0.026 C 
ENDBRANCH  24  27
ENDBRANCH  23  24
ENDBRANCH  22  23
ENDBRANCH  21  22
ENDBRANCH  18  21
ENDBRANCH  13  15
ENDBRANCH   1  13
BRANCH   8  29
HETATM   29  C26   D T 601       7.113  10.603   3.078  1.00 21.63     0.023 A 
HETATM   30  C27   D T 601       8.110  11.240   3.867  1.00 22.75     0.046 A 
HETATM   31 CL28   D T 601       7.997  11.230   5.552  1.00 22.59    -0.083 Cl
HETATM   32  C29   D T 601       9.200  11.934   3.278  1.00 24.08     0.025 A 
HETATM   33  C30   D T 601       9.334  11.957   1.872  1.00 25.63     0.003 A 
HETATM   34  C31   D T 601       8.374  11.314   1.078  1.00 25.41     0.025 A 
HETATM   35  C32   D T 601       7.274  10.645   1.673  1.00 23.77     0.046 A 
HETATM   36 CL33   D T 601       6.145   9.895   0.660  1.00 25.94    -0.083 Cl
ENDBRANCH   8  29
TORSDOF 9
ENDMDL
MODEL 3
REMARK VINA RESULT:    -7.314      2.298      3.015
REMARK INTER + INTRA:         -12.113
REMARK INTER:                 -10.754
REMARK INTRA:                  -1.358
REMARK UNBOUND:                -0.950
REMARK  9 active torsions:
REMARK  status: ('A' for Active; 'I' for Inactive)
REMARK    1  A    between atoms: C02_2  and  N03_3 
REMARK    2  A    between atoms: N03_3  and  C04_4 
REMARK    3  A    between atoms: N03_3  and  C06_6 
REMARK    4  A    between atoms: C06_6  and  C07_7 
REMARK    5  A    between atoms: C07_7  and  O08_8 
REMARK    6  A    between atoms: O08_8  and  C09_9 
REMARK    7  A    between atoms: C12_12  and  N13_13 
REMARK    8  A    between atoms: N13_13  and  C14_14 
REMARK    9  A    between atoms: C21_21  and  C26_26 
ROOT
HETATM    1  C14   D T 601       1.336   8.620   5.598  1.00 17.92     0.728 A 
HETATM    2  N15   D T 601       2.427   8.418   4.832  1.00 19.07    -0.044 NA
HETATM    3  C16   D T 601       2.922   9.316   3.969  1.00 18.16     0.163 A 
HETATM    4  C17   D T 601       2.247  10.532   3.833  1.00 16.80     0.030 A 
HETATM    5  C18   D T 601       1.091  10.730   4.592  1.00 18.08     0.151 A 
HETATM    6  N19   D T 601       0.668   9.777   5.447  1.00 16.91    -0.074 NA
HETATM    7  C20   D T 601       2.722  11.496   2.923  1.00 17.65     0.034 A 
HETATM    8  C21   D T 601       3.882  11.244   2.172  1.00 18.53     0.047 A 
HETATM    9  C22   D T 601       4.523   9.993   2.348  1.00 19.48     0.260 A 
HETATM   10  O23   D T 601       5.526   9.813   1.628  1.00 21.52    -0.267 OA
HETATM   11  N24   D T 601       4.055   9.048   3.242  1.00 19.49    -0.301 N 
HETATM   12  C25   D T 601       4.712   7.769   3.460  1.00 20.07     0.161 C 
ENDROOT
BRANCH   1  13
HETATM   13  N13   D T 601       0.926   7.665   6.447  1.00 20.14    -0.188 N 
HETATM   14 1H13   D T 601       0.070   7.369   6.304  1.00 24.16     0.184 HD
BRANCH  13  15
HETATM   15  C12   D T 601       1.580   7.057   7.496  1.00 24.69     0.049 A 
HETATM   16  C11   D T 601       0.865   6.046   8.192  1.00 26.89     0.033 A 
HETATM   17  C10   D T 601       1.464   5.357   9.269  1.00 28.95     0.039 A 
HETATM   18  C09   D T 601       2.791   5.660   9.645  1.00 30.95     0.069 A 
HETATM   19  C35   D T 601       3.509   6.642   8.938  1.00 28.80     0.039 A 
HETATM   20  C34   D T 601       2.901   7.332   7.885  1.00 26.81     0.033 A 
BRANCH  18  21
HETATM   21  O08   D T 601       3.405   4.986  10.642  1.00 36.09    -0.350 OA
BRANCH  21  22
HETATM   22  C07   D T 601       3.452   3.543  10.476  1.00 42.63     0.195 C 
BRANCH  22  23
HETATM   23  C06   D T 601       4.682   3.174   9.588  1.00 46.85     0.143 C 
BRANCH  23  24
HETATM   24  N03   D T 601       6.008   3.626  10.157  1.00 51.06    -0.411 N 
BRANCH  24  25
HETATM   25  C02   D T 601       6.889   4.644   9.440  1.00 53.85     0.112 C 
HETATM   26  C01   D T 601       6.799   4.758   7.883  1.00 52.69     0.026 C 
ENDBRANCH  24  25
BRANCH  24  27
HETATM   27  C04   D T 601       6.355   3.120  11.532  1.00 47.80     0.112 C 
HETATM   28  C05   D T 601       6.453   4.144  12.697  1.00 44.89     0.026 C 
ENDBRANCH  24  27
ENDBRANCH  23  24
ENDBRANCH  22  23
ENDBRANCH  21  22
ENDBRANCH  18  21
ENDBRANCH  13  15
ENDBRANCH   1  13
BRANCH   8  29
HETATM   29  C26   D T 601       4.395  12.217   1.256  1.00 21.63     0.023 A 
HETATM   30  C27   D T 601       3.949  12.235  -0.095  1.00 22.75     0.046 A 
HETATM   31 CL28   D T 601       2.850  11.078  -0.645  1.00 22.59    -0.083 Cl
HETATM   32  C29   D T 601       4.436  13.188  -1.029  1.00 24.08     0.025 A 
HETATM   33  C30   D T 601       5.350  14.177  -0.605  1.00 25.63     0.003 A 
HETATM   34  C31   D T 601       5.782  14.189   0.728  1.00 25.41     0.025 A 
HETATM   35  C32   D T 601       5.311  13.220   1.650  1.00 23.77     0.046 A 
HETATM   36 CL33   D T 601       5.877  13.283   3.243  1.00 25.94    -0.083 Cl
ENDBRANCH   8  29
TORSDOF 9
ENDMDL
MODEL 4
REMARK VINA RESULT:    -7.155      4.330      9.861
REMARK INTER + INTRA:         -11.869
REMARK INTER:                 -10.594
REMARK INTRA:                  -1.275
REMARK UNBOUND:                -0.950
REMARK  9 active torsions:
REMARK  status: ('A' for Active; 'I' for Inactive)
REMARK    1  A    between atoms: C02_2  and  N03_3 
REMARK    2  A    between atoms: N03_3  and  C04_4 
REMARK    3  A    between atoms: N03_3  and  C06_6 
REMARK    4  A    between atoms: C06_6  and  C07_7 
REMARK    5  A    between atoms: C07_7  and  O08_8 
REMARK    6  A    between atoms: O08_8  and  C09_9 
REMARK    7  A    between atoms: C12_12  and  N13_13 
REMARK    8  A    between atoms: N13_13  and  C14_14 
REMARK    9  A    between atoms: C21_21  and  C26_26 
ROOT
HETATM    1  C14   D T 601       7.342   5.522   7.533  1.00 17.92     0.728 A 
HETATM    2  N15   D T 601       6.650   4.683   8.329  1.00 19.07    -0.044 NA
HETATM    3  C16   D T 601       7.062   4.273   9.536  1.00 18.16     0.163 A 
HETATM    4  C17   D T 601       8.307   4.721   9.988  1.00 16.80     0.030 A 
HETATM    5  C18   D T 601       9.049   5.556   9.148  1.00 18.08     0.151 A 
HETATM    6  N19   D T 601       8.553   5.931   7.952  1.00 16.91    -0.074 NA
HETATM    7  C20   D T 601       8.788   4.298  11.242  1.00 17.65     0.034 A 
HETATM    8  C21   D T 601       8.010   3.447  12.044  1.00 18.53     0.047 A 
HETATM    9  C22   D T 601       6.759   3.021  11.534  1.00 19.48     0.260 A 
HETATM   10  O23   D T 601       6.131   2.238  12.276  1.00 21.52    -0.267 OA
HETATM   11  N24   D T 601       6.289   3.438  10.302  1.00 19.49    -0.301 N 
HETATM   12  C25   D T 601       4.996   3.036   9.770  1.00 20.07     0.161 C 
ENDROOT
BRANCH   1  13
HETATM   13  N13   D T 601       6.836   5.890   6.345  1.00 20.14    -0.188 N 
HETATM   14 1H13   D T 601       7.324   5.612   5.620  1.00 24.16     0.184 HD
BRANCH  13  15
HETATM   15  C12   D T 601       5.706   6.616   6.038  1.00 24.69     0.049 A 
HETATM   16  C11   D T 601       5.726   7.338   4.815  1.00 26.89     0.033 A 
HETATM   17  C10   D T 601       4.605   8.094   4.411  1.00 28.95     0.039 A 
HETATM   18  C09   D T 601       3.446   8.118   5.218  1.00 30.95     0.069 A 
HETATM   19  C35   D T 601       3.416   7.381   6.416  1.00 28.80     0.039 A 
HETATM   20  C34   D T 601       4.539   6.649   6.817  1.00 26.81     0.033 A 
BRANCH  18  21
HETATM   21  O08   D T 601       2.342   8.796   4.835  1.00 36.09    -0.350 OA
BRANCH  21  22
HETATM   22  C07   D T 601       1.681   9.548   5.889  1.00 42.63     0.195 C 
BRANCH  22  23
HETATM   23  C06   D T 601       0.137   9.481   5.667  1.00 46.85     0.143 C 
BRANCH  23  24
HETATM   24  N03   D T 601      -0.429   8.080   5.709  1.00 51.06    -0.411 N 
BRANCH  24  25
HETATM   25  C02   D T 601      -1.011   7.408   4.469  1.00 53.85     0.112 C 
HETATM   26  C01   D T 601      -2.562   7.241   4.358  1.00 52.69     0.026 C 
ENDBRANCH  24  25
BRANCH  24  27
HETATM   27  C04   D T 601      -0.271   7.331   7.005  1.00 47.80     0.112 C 
HETATM   28  C05   D T 601       0.066   5.815   6.949  1.00 44.89     0.026 C 
ENDBRANCH  24  27
ENDBRANCH  23  24
ENDBRANCH  22  23
ENDBRANCH  21  22
ENDBRANCH  18  21
ENDBRANCH  13  15
ENDBRANCH   1  13
BRANCH   8  29
HETATM   29  C26   D T 601       8.469   3.020  13.331  1.00 21.63     0.023 A 
HETATM   30  C27   D T 601       9.321   1.888  13.449  1.00 22.75     0.046 A 
HETATM   31 CL28   D T 601       9.757   1.003  12.079  1.00 22.59    -0.083 Cl
HETATM   32  C29   D T 601       9.797   1.438  14.710  1.00 24.08     0.025 A 
HETATM   33  C30   D T 601       9.461   2.157  15.878  1.00 25.63     0.003 A 
HETATM   34  C31   D T 601       8.642   3.290  15.778  1.00 25.41     0.025 A 
HETATM   35  C32   D T 601       8.150   3.718  14.519  1.00 23.77     0.046 A 
HETATM   36 CL33   D T 601       7.160   5.089  14.467  1.00 25.94    -0.083 Cl
ENDBRANCH   8  29
TORSDOF 9
ENDMDL
MODEL 5
REMARK VINA RESULT:    -6.929      4.309      9.655
REMARK INTER + INTRA:         -11.524
REMARK INTER:                  -9.666
REMARK INTRA:                  -1.859
REMARK UNBOUND:                -0.950
REMARK  9 active torsions:
REMARK  status: ('A' for Active; 'I' for Inactive)
REMARK    1  A    between atoms: C02_2  and  N03_3 
REMARK    2  A    between atoms: N03_3  and  C04_4 
REMARK    3  A    between atoms: N03_3  and  C06_6 
REMARK    4  A    between atoms: C06_6  and  C07_7 
REMARK    5  A    between atoms: C07_7  and  O08_8 
REMARK    6  A    between atoms: O08_8  and  C09_9 
REMARK    7  A    between atoms: C12_12  and  N13_13 
REMARK    8  A    between atoms: N13_13  and  C14_14 
REMARK    9  A    between atoms: C21_21  and  C26_26 
ROOT
HETATM    1  C14   D T 601       7.969   6.079   7.654  1.00 17.92     0.728 A 
HETATM    2  N15   D T 601       7.177   5.217   8.323  1.00 19.07    -0.044 NA
HETATM    3  C16   D T 601       7.484   4.671   9.507  1.00 18.16     0.163 A 
HETATM    4  C17   D T 601       8.720   4.994  10.074  1.00 16.80     0.030 A 
HETATM    5  C18   D T 601       9.564   5.853   9.364  1.00 18.08     0.151 A 
HETATM    6  N19   D T 601       9.171   6.368   8.182  1.00 16.91    -0.074 NA
HETATM    7  C20   D T 601       9.092   4.427  11.308  1.00 17.65     0.034 A 
HETATM    8  C21   D T 601       8.214   3.558  11.976  1.00 18.53     0.047 A 
HETATM    9  C22   D T 601       6.976   3.263  11.354  1.00 19.48     0.260 A 
HETATM   10  O23   D T 601       6.255   2.458  11.977  1.00 21.52    -0.267 OA
HETATM   11  N24   D T 601       6.613   3.821  10.141  1.00 19.49    -0.301 N 
HETATM   12  C25   D T 601       5.337   3.556   9.497  1.00 20.07     0.161 C 
ENDROOT
BRANCH   1  13
HETATM   13  N13   D T 601       7.565   6.587   6.479  1.00 20.14    -0.188 N 
HETATM   14 1H13   D T 601       8.119   6.402   5.772  1.00 24.16     0.184 HD
BRANCH  13  15
HETATM   15  C12   D T 601       6.456   7.341   6.161  1.00 24.69     0.049 A 
HETATM   16  C11   D T 601       5.770   6.993   4.968  1.00 26.89     0.033 A 
HETATM   17  C10   D T 601       4.613   7.699   4.575  1.00 28.95     0.039 A 
HETATM   18  C09   D T 601       4.122   8.748   5.383  1.00 30.95     0.069 A 
HETATM   19  C35   D T 601       4.786   9.075   6.579  1.00 28.80     0.039 A 
HETATM   20  C34   D T 601       5.942   8.381   6.951  1.00 26.81     0.033 A 
BRANCH  18  21
HETATM   21  O08   D T 601       2.992   9.412   5.055  1.00 36.09    -0.350 OA
BRANCH  21  22
HETATM   22  C07   D T 601       1.949   9.397   6.067  1.00 42.63     0.195 C 
BRANCH  22  23
HETATM   23  C06   D T 601       0.916   8.279   5.713  1.00 46.85     0.143 C 
BRANCH  23  24
HETATM   24  N03   D T 601       0.873   7.146   6.712  1.00 51.06    -0.411 N 
BRANCH  24  25
HETATM   25  C02   D T 601       1.968   6.949   7.757  1.00 53.85     0.112 C 
HETATM   26  C01   D T 601       3.053   5.849   7.516  1.00 52.69     0.026 C 
ENDBRANCH  24  25
BRANCH  24  27
HETATM   27  C04   D T 601      -0.370   6.296   6.710  1.00 47.80     0.112 C 
HETATM   28  C05   D T 601      -0.652   5.393   7.943  1.00 44.89     0.026 C 
ENDBRANCH  24  27
ENDBRANCH  23  24
ENDBRANCH  22  23
ENDBRANCH  21  22
ENDBRANCH  18  21
ENDBRANCH  13  15
ENDBRANCH   1  13
BRANCH   8  29
HETATM   29  C26   D T 601       8.561   2.985  13.241  1.00 21.63     0.023 A 
HETATM   30  C27   D T 601       8.118   3.592  14.449  1.00 22.75     0.046 A 
HETATM   31 CL28   D T 601       7.223   5.023  14.405  1.00 22.59    -0.083 Cl
HETATM   32  C29   D T 601       8.442   3.049  15.721  1.00 24.08     0.025 A 
HETATM   33  C30   D T 601       9.182   1.848  15.799  1.00 25.63     0.003 A 
HETATM   34  C31   D T 601       9.606   1.223  14.618  1.00 25.41     0.025 A 
HETATM   35  C32   D T 601       9.300   1.784  13.353  1.00 23.77     0.046 A 
HETATM   36 CL33   D T 601       9.848   0.986  11.965  1.00 25.94    -0.083 Cl
ENDBRANCH   8  29
TORSDOF 9
ENDMDL
MODEL 6
REMARK VINA RESULT:    -6.754      4.303      7.599
REMARK INTER + INTRA:         -11.257
REMARK INTER:                 -10.740
REMARK INTRA:                  -0.517
REMARK UNBOUND:                -0.950
REMARK  9 active torsions:
REMARK  status: ('A' for Active; 'I' for Inactive)
REMARK    1  A    between atoms: C02_2  and  N03_3 
REMARK    2  A    between atoms: N03_3  and  C04_4 
REMARK    3  A    between atoms: N03_3  and  C06_6 
REMARK    4  A    between atoms: C06_6  and  C07_7 
REMARK    5  A    between atoms: C07_7  and  O08_8 
REMARK    6  A    between atoms: O08_8  and  C09_9 
REMARK    7  A    between atoms: C12_12  and  N13_13 
REMARK    8  A    between atoms: N13_13  and  C14_14 
REMARK    9  A    between atoms: C21_21  and  C26_26 
ROOT
HETATM    1  C14   D T 601       4.557   3.466  10.716  1.00 17.92     0.728 A 
HETATM    2  N15   D T 601       4.965   4.039   9.567  1.00 19.07    -0.044 NA
HETATM    3  C16   D T 601       4.255   4.944   8.879  1.00 18.16     0.163 A 
HETATM    4  C17   D T 601       2.995   5.296   9.371  1.00 16.80     0.030 A 
HETATM    5  C18   D T 601       2.548   4.673  10.539  1.00 18.08     0.151 A 
HETATM    6  N19   D T 601       3.333   3.781  11.176  1.00 16.91    -0.074 NA
HETATM    7  C20   D T 601       2.207   6.228   8.668  1.00 17.65     0.034 A 
HETATM    8  C21   D T 601       2.695   6.817   7.491  1.00 18.53     0.047 A 
HETATM    9  C22   D T 601       3.976   6.420   7.036  1.00 19.48     0.260 A 
HETATM   10  O23   D T 601       4.340   6.950   5.966  1.00 21.52    -0.267 OA
HETATM   11  N24   D T 601       4.749   5.504   7.728  1.00 19.49    -0.301 N 
HETATM   12  C25   D T 601       6.078   5.103   7.296  1.00 20.07     0.161 C 
ENDROOT
BRANCH   1  13
HETATM   13  N13   D T 601       5.349   2.582  11.343  1.00 20.14    -0.188 N 
HETATM   14 1H13   D T 601       5.159   1.703  11.160  1.00 24.16     0.184 HD
BRANCH  13  15
HETATM   15  C12   D T 601       6.399   2.777  12.213  1.00 24.69     0.049 A 
HETATM   16  C11   D T 601       6.078   3.309  13.490  1.00 26.89     0.033 A 
HETATM   17  C10   D T 601       7.088   3.524  14.452  1.00 28.95     0.039 A 
HETATM   18  C09   D T 601       8.427   3.189  14.151  1.00 30.95     0.069 A 
HETATM   19  C35   D T 601       8.741   2.635  12.897  1.00 28.80     0.039 A 
HETATM   20  C34   D T 601       7.736   2.443  11.944  1.00 26.81     0.033 A 
BRANCH  18  21
HETATM   21  O08   D T 601       9.407   3.342  15.067  1.00 36.09    -0.350 OA
BRANCH  21  22
HETATM   22  C07   D T 601      10.618   2.578  14.812  1.00 42.63     0.195 C 
BRANCH  22  23
HETATM   23  C06   D T 601      10.667   1.363  15.791  1.00 46.85     0.143 C 
BRANCH  23  24
HETATM   24  N03   D T 601      10.139   0.076  15.199  1.00 51.06    -0.411 N 
BRANCH  24  25
HETATM   25  C02   D T 601      10.765  -0.558  13.960  1.00 53.85     0.112 C 
HETATM   26  C01   D T 601      10.236  -1.948  13.475  1.00 52.69     0.026 C 
ENDBRANCH  24  25
BRANCH  24  27
HETATM   27  C04   D T 601       9.047  -0.618  15.969  1.00 47.80     0.112 C 
HETATM   28  C05   D T 601       7.594  -0.083  15.840  1.00 44.89     0.026 C 
ENDBRANCH  24  27
ENDBRANCH  23  24
ENDBRANCH  22  23
ENDBRANCH  21  22
ENDBRANCH  18  21
ENDBRANCH  13  15
ENDBRANCH   1  13
BRANCH   8  29
HETATM   29  C26   D T 601       1.920   7.782   6.770  1.00 21.63     0.023 A 
HETATM   30  C27   D T 601       0.634   7.439   6.269  1.00 22.75     0.046 A 
HETATM   31 CL28   D T 601       0.029   5.876   6.472  1.00 22.59    -0.083 Cl
HETATM   32  C29   D T 601      -0.162   8.372   5.553  1.00 24.08     0.025 A 
HETATM   33  C30   D T 601       0.306   9.693   5.370  1.00 25.63     0.003 A 
HETATM   34  C31   D T 601       1.561  10.055   5.878  1.00 25.41     0.025 A 
HETATM   35  C32   D T 601       2.361   9.111   6.570  1.00 23.77     0.046 A 
HETATM   36 CL33   D T 601       3.870   9.608   7.152  1.00 25.94    -0.083 Cl
ENDBRANCH   8  29
TORSDOF 9
ENDMDL
MODEL 7
REMARK VINA RESULT:    -6.699      2.342      3.515
REMARK INTER + INTRA:         -11.173
REMARK INTER:                 -10.498
REMARK INTRA:                  -0.676
REMARK UNBOUND:                -0.950
REMARK  9 active torsions:
REMARK  status: ('A' for Active; 'I' for Inactive)
REMARK    1  A    between atoms: C02_2  and  N03_3 
REMARK    2  A    between atoms: N03_3  and  C04_4 
REMARK    3  A    between atoms: N03_3  and  C06_6 
REMARK    4  A    between atoms: C06_6  and  C07_7 
REMARK    5  A    between atoms: C07_7  and  O08_8 
REMARK    6  A    between atoms: O08_8  and  C09_9 
REMARK    7  A    between atoms: C12_12  and  N13_13 
REMARK    8  A    between atoms: N13_13  and  C14_14 
REMARK    9  A    between atoms: C21_21  and  C26_26 
ROOT
HETATM    1  C14   D T 601       1.839   8.239   6.151  1.00 17.92     0.728 A 
HETATM    2  N15   D T 601       2.939   8.135   5.380  1.00 19.07    -0.044 NA
HETATM    3  C16   D T 601       3.299   9.029   4.449  1.00 18.16     0.163 A 
HETATM    4  C17   D T 601       2.462  10.130   4.245  1.00 16.80     0.030 A 
HETATM    5  C18   D T 601       1.297  10.222   5.012  1.00 18.08     0.151 A 
HETATM    6  N19   D T 601       1.017   9.282   5.937  1.00 16.91    -0.074 NA
HETATM    7  C20   D T 601       2.792  11.084   3.263  1.00 17.65     0.034 A 
HETATM    8  C21   D T 601       3.967  10.941   2.508  1.00 18.53     0.047 A 
HETATM    9  C22   D T 601       4.775   9.804   2.755  1.00 19.48     0.260 A 
HETATM   10  O23   D T 601       5.786   9.712   2.029  1.00 21.52    -0.267 OA
HETATM   11  N24   D T 601       4.450   8.868   3.720  1.00 19.49    -0.301 N 
HETATM   12  C25   D T 601       5.277   7.708   4.010  1.00 20.07     0.161 C 
ENDROOT
BRANCH   1  13
HETATM   13  N13   D T 601       1.573   7.298   7.071  1.00 20.14    -0.188 N 
HETATM   14 1H13   D T 601       0.679   7.154   7.222  1.00 24.16     0.184 HD
BRANCH  13  15
HETATM   15  C12   D T 601       2.419   6.515   7.824  1.00 24.69     0.049 A 
HETATM   16  C11   D T 601       1.867   5.916   8.987  1.00 26.89     0.033 A 
HETATM   17  C10   D T 601       2.657   5.083   9.808  1.00 28.95     0.039 A 
HETATM   18  C09   D T 601       4.001   4.826   9.462  1.00 30.95     0.069 A 
HETATM   19  C35   D T 601       4.541   5.397   8.295  1.00 28.80     0.039 A 
HETATM   20  C34   D T 601       3.756   6.236   7.497  1.00 26.81     0.033 A 
BRANCH  18  21
HETATM   21  O08   D T 601       4.768   3.997  10.204  1.00 36.09    -0.350 OA
BRANCH  21  22
HETATM   22  C07   D T 601       4.455   3.970  11.623  1.00 42.63     0.195 C 
BRANCH  22  23
HETATM   23  C06   D T 601       5.469   3.029  12.348  1.00 46.85     0.143 C 
BRANCH  23  24
HETATM   24  N03   D T 601       6.563   3.762  13.090  1.00 51.06    -0.411 N 
BRANCH  24  25
HETATM   25  C02   D T 601       7.594   4.622  12.364  1.00 53.85     0.112 C 
HETATM   26  C01   D T 601       8.195   4.104  11.016  1.00 52.69     0.026 C 
ENDBRANCH  24  25
BRANCH  24  27
HETATM   27  C04   D T 601       6.507   3.707  14.593  1.00 47.80     0.112 C 
HETATM   28  C05   D T 601       7.588   2.883  15.346  1.00 44.89     0.026 C 
ENDBRANCH  24  27
ENDBRANCH  23  24
ENDBRANCH  22  23
ENDBRANCH  21  22
ENDBRANCH  18  21
ENDBRANCH  13  15
ENDBRANCH   1  13
BRANCH   8  29
HETATM   29  C26   D T 601       4.333  11.909   1.519  1.00 21.63     0.023 A 
HETATM   30  C27   D T 601       5.274  12.929   1.827  1.00 22.75     0.046 A 
HETATM   31 CL28   D T 601       5.930  13.042   3.379  1.00 22.59    -0.083 Cl
HETATM   32  C29   D T 601       5.662  13.903   0.869  1.00 24.08     0.025 A 
HETATM   33  C30   D T 601       5.142  13.836  -0.443  1.00 25.63     0.003 A 
HETATM   34  C31   D T 601       4.231  12.823  -0.772  1.00 25.41     0.025 A 
HETATM   35  C32   D T 601       3.830  11.869   0.198  1.00 23.77     0.046 A 
HETATM   36 CL33   D T 601       2.721  10.676  -0.260  1.00 25.94    -0.083 Cl
ENDBRANCH   8  29
TORSDOF 9
ENDMDL
MODEL 8
REMARK VINA RESULT:    -6.684      4.685     10.221
REMARK INTER + INTRA:         -11.150
REMARK INTER:                  -9.888
REMARK INTRA:                  -1.262
REMARK UNBOUND:                -0.950
REMARK  9 active torsions:
REMARK  status: ('A' for Active; 'I' for Inactive)
REMARK    1  A    between atoms: C02_2  and  N03_3 
REMARK    2  A    between atoms: N03_3  and  C04_4 
REMARK    3  A    between atoms: N03_3  and  C06_6 
REMARK    4  A    between atoms: C06_6  and  C07_7 
REMARK    5  A    between atoms: C07_7  and  O08_8 
REMARK    6  A    between atoms: O08_8  and  C09_9 
REMARK    7  A    between atoms: C12_12  and  N13_13 
REMARK    8  A    between atoms: N13_13  and  C14_14 
REMARK    9  A    between atoms: C21_21  and  C26_26 
ROOT
HETATM    1  C14   D T 601       6.591   4.983   8.281  1.00 17.92     0.728 A 
HETATM    2  N15   D T 601       7.652   5.190   9.087  1.00 19.07    -0.044 NA
HETATM    3  C16   D T 601       7.860   4.546  10.244  1.00 18.16     0.163 A 
HETATM    4  C17   D T 601       6.900   3.619  10.657  1.00 16.80     0.030 A 
HETATM    5  C18   D T 601       5.776   3.432   9.847  1.00 18.08     0.151 A 
HETATM    6  N19   D T 601       5.651   4.114   8.690  1.00 16.91    -0.074 NA
HETATM    7  C20   D T 601       7.069   2.935  11.876  1.00 17.65     0.034 A 
HETATM    8  C21   D T 601       8.209   3.167  12.662  1.00 18.53     0.047 A 
HETATM    9  C22   D T 601       9.148   4.121  12.196  1.00 19.48     0.260 A 
HETATM   10  O23   D T 601      10.121   4.311  12.954  1.00 21.52    -0.267 OA
HETATM   11  N24   D T 601       8.980   4.792  10.999  1.00 19.49    -0.301 N 
HETATM   12  C25   D T 601       9.943   5.754  10.487  1.00 20.07     0.161 C 
ENDROOT
BRANCH   1  13
HETATM   13  N13   D T 601       6.480   5.666   7.131  1.00 20.14    -0.188 N 
HETATM   14 1H13   D T 601       7.186   5.562   6.555  1.00 24.16     0.184 HD
BRANCH  13  15
HETATM   15  C12   D T 601       5.480   6.497   6.674  1.00 24.69     0.049 A 
HETATM   16  C11   D T 601       5.581   6.933   5.327  1.00 26.89     0.033 A 
HETATM   17  C10   D T 601       4.592   7.771   4.768  1.00 28.95     0.039 A 
HETATM   18  C09   D T 601       3.483   8.164   5.549  1.00 30.95     0.069 A 
HETATM   19  C35   D T 601       3.368   7.709   6.875  1.00 28.80     0.039 A 
HETATM   20  C34   D T 601       4.363   6.894   7.425  1.00 26.81     0.033 A 
BRANCH  18  21
HETATM   21  O08   D T 601       2.498   8.929   5.028  1.00 36.09    -0.350 OA
BRANCH  21  22
HETATM   22  C07   D T 601       1.587   9.512   6.000  1.00 42.63     0.195 C 
BRANCH  22  23
HETATM   23  C06   D T 601       0.120   9.304   5.508  1.00 46.85     0.143 C 
BRANCH  23  24
HETATM   24  N03   D T 601      -0.386   7.889   5.670  1.00 51.06    -0.411 N 
BRANCH  24  25
HETATM   25  C02   D T 601      -0.344   7.166   7.013  1.00 53.85     0.112 C 
HETATM   26  C01   D T 601       0.189   5.696   7.064  1.00 52.69     0.026 C 
ENDBRANCH  24  25
BRANCH  24  27
HETATM   27  C04   D T 601      -1.055   7.273   4.469  1.00 47.80     0.112 C 
HETATM   28  C05   D T 601      -2.603   7.349   4.363  1.00 44.89     0.026 C 
ENDBRANCH  24  27
ENDBRANCH  23  24
ENDBRANCH  22  23
ENDBRANCH  21  22
ENDBRANCH  18  21
ENDBRANCH  13  15
ENDBRANCH   1  13
BRANCH   8  29
HETATM   29  C26   D T 601       8.413   2.469  13.894  1.00 21.63     0.023 A 
HETATM   30  C27   D T 601       7.781   2.919  15.086  1.00 22.75     0.046 A 
HETATM   31 CL28   D T 601       6.827   4.311  15.072  1.00 22.59    -0.083 Cl
HETATM   32  C29   D T 601       7.959   2.248  16.326  1.00 24.08     0.025 A 
HETATM   33  C30   D T 601       8.744   1.074  16.377  1.00 25.63     0.003 A 
HETATM   34  C31   D T 601       9.355   0.603  15.207  1.00 25.41     0.025 A 
HETATM   35  C32   D T 601       9.193   1.292  13.978  1.00 23.77     0.046 A 
HETATM   36 CL33   D T 601       9.963   0.675  12.603  1.00 25.94    -0.083 Cl
ENDBRANCH   8  29
TORSDOF 9
ENDMDL
MODEL 9
REMARK VINA RESULT:    -6.657      4.404      7.566
REMARK INTER + INTRA:         -11.109
REMARK INTER:                 -10.544
REMARK INTRA:                  -0.566
REMARK UNBOUND:                -0.950
REMARK  9 active torsions:
REMARK  status: ('A' for Active; 'I' for Inactive)
REMARK    1  A    between atoms: C02_2  and  N03_3 
REMARK    2  A    between atoms: N03_3  and  C04_4 
REMARK    3  A    between atoms: N03_3  and  C06_6 
REMARK    4  A    between atoms: C06_6  and  C07_7 
REMARK    5  A    between atoms: C07_7  and  O08_8 
REMARK    6  A    between atoms: O08_8  and  C09_9 
REMARK    7  A    between atoms: C12_12  and  N13_13 
REMARK    8  A    between atoms: N13_13  and  C14_14 
REMARK    9  A    between atoms: C21_21  and  C26_26 
ROOT
HETATM    1  C14   D T 601       4.471   3.538  10.913  1.00 17.92     0.728 A 
HETATM    2  N15   D T 601       4.892   4.111   9.768  1.00 19.07    -0.044 NA
HETATM    3  C16   D T 601       4.161   4.961   9.034  1.00 18.16     0.163 A 
HETATM    4  C17   D T 601       2.866   5.252   9.469  1.00 16.80     0.030 A 
HETATM    5  C18   D T 601       2.408   4.627  10.632  1.00 18.08     0.151 A 
HETATM    6  N19   D T 601       3.214   3.793  11.318  1.00 16.91    -0.074 NA
HETATM    7  C20   D T 601       2.056   6.125   8.717  1.00 17.65     0.034 A 
HETATM    8  C21   D T 601       2.557   6.717   7.547  1.00 18.53     0.047 A 
HETATM    9  C22   D T 601       3.876   6.383   7.151  1.00 19.48     0.260 A 
HETATM   10  O23   D T 601       4.252   6.912   6.084  1.00 21.52    -0.267 OA
HETATM   11  N24   D T 601       4.669   5.526   7.890  1.00 19.49    -0.301 N 
HETATM   12  C25   D T 601       6.034   5.190   7.519  1.00 20.07     0.161 C 
ENDROOT
BRANCH   1  13
HETATM   13  N13   D T 601       5.285   2.711  11.588  1.00 20.14    -0.188 N 
HETATM   14 1H13   D T 601       5.055   1.825  11.539  1.00 24.16     0.184 HD
BRANCH  13  15
HETATM   15  C12   D T 601       6.407   2.975  12.342  1.00 24.69     0.049 A 
HETATM   16  C11   D T 601       6.225   3.783  13.494  1.00 26.89     0.033 A 
HETATM   17  C10   D T 601       7.317   4.089  14.335  1.00 28.95     0.039 A 
HETATM   18  C09   D T 601       8.597   3.571  14.040  1.00 30.95     0.069 A 
HETATM   19  C35   D T 601       8.773   2.747  12.914  1.00 28.80     0.039 A 
HETATM   20  C34   D T 601       7.688   2.465  12.076  1.00 26.81     0.033 A 
BRANCH  18  21
HETATM   21  O08   D T 601       9.651   3.810  14.851  1.00 36.09    -0.350 OA
BRANCH  21  22
HETATM   22  C07   D T 601       9.428   4.817  15.875  1.00 42.63     0.195 C 
BRANCH  22  23
HETATM   23  C06   D T 601      10.411   6.007  15.638  1.00 46.85     0.143 C 
BRANCH  23  24
HETATM   24  N03   D T 601       9.968   6.961  14.553  1.00 51.06    -0.411 N 
BRANCH  24  25
HETATM   25  C02   D T 601       8.726   7.834  14.703  1.00 53.85     0.112 C 
HETATM   26  C01   D T 601       8.398   8.881  13.588  1.00 52.69     0.026 C 
ENDBRANCH  24  25
BRANCH  24  27
HETATM   27  C04   D T 601      10.887   7.104  13.369  1.00 47.80     0.112 C 
HETATM   28  C05   D T 601      10.973   5.933  12.351  1.00 44.89     0.026 C 
ENDBRANCH  24  27
ENDBRANCH  23  24
ENDBRANCH  22  23
ENDBRANCH  21  22
ENDBRANCH  18  21
ENDBRANCH  13  15
ENDBRANCH   1  13
BRANCH   8  29
HETATM   29  C26   D T 601       1.760   7.623   6.777  1.00 21.63     0.023 A 
HETATM   30  C27   D T 601       0.515   7.201   6.235  1.00 22.75     0.046 A 
HETATM   31 CL28   D T 601      -0.013   5.612   6.450  1.00 22.59    -0.083 Cl
HETATM   32  C29   D T 601      -0.302   8.075   5.469  1.00 24.08     0.025 A 
HETATM   33  C30   D T 601       0.101   9.415   5.275  1.00 25.63     0.003 A 
HETATM   34  C31   D T 601       1.314   9.855   5.821  1.00 25.41     0.025 A 
HETATM   35  C32   D T 601       2.136   8.970   6.564  1.00 23.77     0.046 A 
HETATM   36 CL33   D T 601       3.592   9.561   7.191  1.00 25.94    -0.083 Cl
ENDBRANCH   8  29
TORSDOF 9
ENDMDL
