MODEL 1
REMARK VINA RESULT:    -8.386      0.000      0.000
REMARK INTER + INTRA:         -13.976
REMARK INTER:                 -12.798
REMARK INTRA:                  -1.178
REMARK UNBOUND:                -1.178
REMARK  9 active torsions:
REMARK  status: ('A' for Active; 'I' for Inactive)
REMARK    1  A    between atoms: C02_2  and  N03_3 
REMARK    2  A    between atoms: N03_3  and  C04_4 
REMARK    3  A    between atoms: N03_3  and  C06_6 
REMARK    4  A    between atoms: C06_6  and  C07_7 
REMARK    5  A    between atoms: C07_7  and  O08_8 
REMARK    6  A    between atoms: O08_8  and  C09_9 
REMARK    7  A    between atoms: C12_12  and  N13_13 
REMARK    8  A    between atoms: N13_13  and  C14_14 
REMARK    9  A    between atoms: C21_21  and  C26_26 
ROOT
HETATM    1  C14   D T 601       1.865   8.881   1.497  1.00 17.92     0.728 A 
HETATM    2  N15   D T 601       1.136   8.256   2.443  1.00 19.07    -0.044 NA
HETATM    3  C16   D T 601       1.152   6.935   2.662  1.00 18.16     0.163 A 
HETATM    4  C17   D T 601       1.958   6.148   1.837  1.00 16.80     0.030 A 
HETATM    5  C18   D T 601       2.683   6.783   0.827  1.00 18.08     0.151 A 
HETATM    6  N19   D T 601       2.619   8.123   0.683  1.00 16.91    -0.074 NA
HETATM    7  C20   D T 601       1.990   4.751   2.019  1.00 17.65     0.034 A 
HETATM    8  C21   D T 601       1.231   4.157   3.040  1.00 18.53     0.047 A 
HETATM    9  C22   D T 601       0.428   5.003   3.843  1.00 19.48     0.260 A 
HETATM   10  O23   D T 601      -0.251   4.415   4.711  1.00 21.52    -0.267 OA
HETATM   11  N24   D T 601       0.399   6.373   3.664  1.00 19.49    -0.301 N 
HETATM   12  C25   D T 601      -0.394   7.266   4.494  1.00 20.07     0.161 C 
ENDROOT
BRANCH   1  13
HETATM   13  N13   D T 601       1.795  10.215   1.367  1.00 20.14    -0.188 N 
HETATM   14 1H13   D T 601       2.608  10.639   1.331  1.00 24.16     0.184 HD
BRANCH  13  15
HETATM   15  C12   D T 601       0.704  11.052   1.279  1.00 24.69     0.049 A 
HETATM   16  C11   D T 601       0.157  11.254  -0.015  1.00 26.89     0.033 A 
HETATM   17  C10   D T 601      -0.974  12.079  -0.195  1.00 28.95     0.039 A 
HETATM   18  C09   D T 601      -1.578  12.697   0.922  1.00 30.95     0.069 A 
HETATM   19  C35   D T 601      -1.053  12.475   2.209  1.00 28.80     0.039 A 
HETATM   20  C34   D T 601       0.078  11.669   2.374  1.00 26.81     0.033 A 
BRANCH  18  21
HETATM   21  O08   D T 601      -2.687  13.457   0.786  1.00 36.09    -0.350 OA
BRANCH  21  22
HETATM   22  C07   D T 601      -3.836  12.777   0.210  1.00 42.63     0.195 C 
BRANCH  22  23
HETATM   23  C06   D T 601      -4.378  11.737   1.241  1.00 46.85     0.143 C 
BRANCH  23  24
HETATM   24  N03   D T 601      -5.377  12.310   2.222  1.00 51.06    -0.411 N 
BRANCH  24  25
HETATM   25  C02   D T 601      -6.869  12.377   1.907  1.00 53.85     0.112 C 
HETATM   26  C01   D T 601      -7.774  11.155   2.274  1.00 52.69     0.026 C 
ENDBRANCH  24  25
BRANCH  24  27
HETATM   27  C04   D T 601      -4.843  12.690   3.577  1.00 47.80     0.112 C 
HETATM   28  C05   D T 601      -4.720  11.586   4.663  1.00 44.89     0.026 C 
ENDBRANCH  24  27
ENDBRANCH  23  24
ENDBRANCH  22  23
ENDBRANCH  21  22
ENDBRANCH  18  21
ENDBRANCH  13  15
ENDBRANCH   1  13
BRANCH   8  29
HETATM   29  C26   D T 601       1.261   2.742   3.258  1.00 21.63     0.023 A 
HETATM   30  C27   D T 601       2.329   2.152   3.990  1.00 22.75     0.046 A 
HETATM   31 CL28   D T 601       3.598   3.107   4.564  1.00 22.59    -0.083 Cl
HETATM   32  C29   D T 601       2.391   0.754   4.226  1.00 24.08     0.025 A 
HETATM   33  C30   D T 601       1.344  -0.078   3.768  1.00 25.63     0.003 A 
HETATM   34  C31   D T 601       0.272   0.489   3.066  1.00 25.41     0.025 A 
HETATM   35  C32   D T 601       0.230   1.884   2.812  1.00 23.77     0.046 A 
HETATM   36 CL33   D T 601      -1.088   2.505   1.952  1.00 25.94    -0.083 Cl
ENDBRANCH   8  29
TORSDOF 9
ENDMDL
MODEL 2
REMARK VINA RESULT:    -8.167      0.370      1.576
REMARK INTER + INTRA:         -13.641
REMARK INTER:                 -12.806
REMARK INTRA:                  -0.835
REMARK UNBOUND:                -1.178
REMARK  9 active torsions:
REMARK  status: ('A' for Active; 'I' for Inactive)
REMARK    1  A    between atoms: C02_2  and  N03_3 
REMARK    2  A    between atoms: N03_3  and  C04_4 
REMARK    3  A    between atoms: N03_3  and  C06_6 
REMARK    4  A    between atoms: C06_6  and  C07_7 
REMARK    5  A    between atoms: C07_7  and  O08_8 
REMARK    6  A    between atoms: O08_8  and  C09_9 
REMARK    7  A    between atoms: C12_12  and  N13_13 
REMARK    8  A    between atoms: N13_13  and  C14_14 
REMARK    9  A    between atoms: C21_21  and  C26_26 
ROOT
HETATM    1  C14   D T 601       1.997   8.864   1.484  1.00 17.92     0.728 A 
HETATM    2  N15   D T 601       1.245   8.262   2.427  1.00 19.07    -0.044 NA
HETATM    3  C16   D T 601       1.232   6.942   2.654  1.00 18.16     0.163 A 
HETATM    4  C17   D T 601       2.031   6.133   1.844  1.00 16.80     0.030 A 
HETATM    5  C18   D T 601       2.780   6.746   0.837  1.00 18.08     0.151 A 
HETATM    6  N19   D T 601       2.744   8.086   0.683  1.00 16.91    -0.074 NA
HETATM    7  C20   D T 601       2.033   4.737   2.036  1.00 17.65     0.034 A 
HETATM    8  C21   D T 601       1.252   4.166   3.053  1.00 18.53     0.047 A 
HETATM    9  C22   D T 601       0.457   5.034   3.842  1.00 19.48     0.260 A 
HETATM   10  O23   D T 601      -0.242   4.465   4.706  1.00 21.52    -0.267 OA
HETATM   11  N24   D T 601       0.458   6.403   3.652  1.00 19.49    -0.301 N 
HETATM   12  C25   D T 601      -0.326   7.317   4.468  1.00 20.07     0.161 C 
ENDROOT
BRANCH   1  13
HETATM   13  N13   D T 601       1.954  10.199   1.343  1.00 20.14    -0.188 N 
HETATM   14 1H13   D T 601       2.773  10.613   1.377  1.00 24.16     0.184 HD
BRANCH  13  15
HETATM   15  C12   D T 601       0.886  11.048   1.159  1.00 24.69     0.049 A 
HETATM   16  C11   D T 601       0.269  11.030  -0.119  1.00 26.89     0.033 A 
HETATM   17  C10   D T 601      -0.845  11.853  -0.391  1.00 28.95     0.039 A 
HETATM   18  C09   D T 601      -1.363  12.690   0.622  1.00 30.95     0.069 A 
HETATM   19  C35   D T 601      -0.770  12.688   1.898  1.00 28.80     0.039 A 
HETATM   20  C34   D T 601       0.345  11.882   2.151  1.00 26.81     0.033 A 
BRANCH  18  21
HETATM   21  O08   D T 601      -2.455  13.456   0.406  1.00 36.09    -0.350 OA
BRANCH  21  22
HETATM   22  C07   D T 601      -3.686  12.722   0.160  1.00 42.63     0.195 C 
BRANCH  22  23
HETATM   23  C06   D T 601      -3.813  11.577   1.213  1.00 46.85     0.143 C 
BRANCH  23  24
HETATM   24  N03   D T 601      -4.941  11.775   2.201  1.00 51.06    -0.411 N 
BRANCH  24  25
HETATM   25  C02   D T 601      -6.280  12.378   1.786  1.00 53.85     0.112 C 
HETATM   26  C01   D T 601      -7.587  11.552   2.024  1.00 52.69     0.026 C 
ENDBRANCH  24  25
BRANCH  24  27
HETATM   27  C04   D T 601      -4.723  11.226   3.586  1.00 47.80     0.112 C 
HETATM   28  C05   D T 601      -4.887  12.185   4.798  1.00 44.89     0.026 C 
ENDBRANCH  24  27
ENDBRANCH  23  24
ENDBRANCH  22  23
ENDBRANCH  21  22
ENDBRANCH  18  21
ENDBRANCH  13  15
ENDBRANCH   1  13
BRANCH   8  29
HETATM   29  C26   D T 601       1.252   2.752   3.281  1.00 21.63     0.023 A 
HETATM   30  C27   D T 601       0.196   1.944   2.774  1.00 22.75     0.046 A 
HETATM   31 CL28   D T 601      -1.095   2.651   1.946  1.00 22.59    -0.083 Cl
HETATM   32  C29   D T 601       0.164   0.540   2.979  1.00 24.08     0.025 A 
HETATM   33  C30   D T 601       1.230  -0.089   3.661  1.00 25.63     0.003 A 
HETATM   34  C31   D T 601       2.291   0.687   4.146  1.00 25.41     0.025 A 
HETATM   35  C32   D T 601       2.303   2.093   3.959  1.00 23.77     0.046 A 
HETATM   36 CL33   D T 601       3.609   2.974   4.576  1.00 25.94    -0.083 Cl
ENDBRANCH   8  29
TORSDOF 9
ENDMDL
MODEL 3
REMARK VINA RESULT:    -7.486      1.278      2.028
REMARK INTER + INTRA:         -12.603
REMARK INTER:                 -11.696
REMARK INTRA:                  -0.907
REMARK UNBOUND:                -1.178
REMARK  9 active torsions:
REMARK  status: ('A' for Active; 'I' for Inactive)
REMARK    1  A    between atoms: C02_2  and  N03_3 
REMARK    2  A    between atoms: N03_3  and  C04_4 
REMARK    3  A    between atoms: N03_3  and  C06_6 
REMARK    4  A    between atoms: C06_6  and  C07_7 
REMARK    5  A    between atoms: C07_7  and  O08_8 
REMARK    6  A    between atoms: O08_8  and  C09_9 
REMARK    7  A    between atoms: C12_12  and  N13_13 
REMARK    8  A    between atoms: N13_13  and  C14_14 
REMARK    9  A    between atoms: C21_21  and  C26_26 
ROOT
HETATM    1  C14   D T 601       0.536   8.919   3.779  1.00 17.92     0.728 A 
HETATM    2  N15   D T 601       1.248   8.139   2.942  1.00 19.07    -0.044 NA
HETATM    3  C16   D T 601       1.322   6.804   3.031  1.00 18.16     0.163 A 
HETATM    4  C17   D T 601       0.638   6.182   4.077  1.00 16.80     0.030 A 
HETATM    5  C18   D T 601      -0.066   6.988   4.974  1.00 18.08     0.151 A 
HETATM    6  N19   D T 601      -0.099   8.326   4.804  1.00 16.91    -0.074 NA
HETATM    7  C20   D T 601       0.705   4.782   4.219  1.00 17.65     0.034 A 
HETATM    8  C21   D T 601       1.438   4.015   3.299  1.00 18.53     0.047 A 
HETATM    9  C22   D T 601       2.116   4.700   2.261  1.00 19.48     0.260 A 
HETATM   10  O23   D T 601       2.779   3.969   1.496  1.00 21.52    -0.267 OA
HETATM   11  N24   D T 601       2.048   6.073   2.123  1.00 19.49    -0.301 N 
HETATM   12  C25   D T 601       2.711   6.796   1.048  1.00 20.07     0.161 C 
ENDROOT
BRANCH   1  13
HETATM   13  N13   D T 601       0.510  10.249   3.598  1.00 20.14    -0.188 N 
HETATM   14 1H13   D T 601       1.094  10.719   4.127  1.00 24.16     0.184 HD
BRANCH  13  15
HETATM   15  C12   D T 601      -0.250  11.024   2.749  1.00 24.69     0.049 A 
HETATM   16  C11   D T 601      -0.484  10.506   1.449  1.00 26.89     0.033 A 
HETATM   17  C10   D T 601      -1.269  11.223   0.520  1.00 28.95     0.039 A 
HETATM   18  C09   D T 601      -1.841  12.460   0.892  1.00 30.95     0.069 A 
HETATM   19  C35   D T 601      -1.632  12.962   2.190  1.00 28.80     0.039 A 
HETATM   20  C34   D T 601      -0.838  12.251   3.096  1.00 26.81     0.033 A 
BRANCH  18  21
HETATM   21  O08   D T 601      -2.633  13.148   0.040  1.00 36.09    -0.350 OA
BRANCH  21  22
HETATM   22  C07   D T 601      -3.961  13.459   0.544  1.00 42.63     0.195 C 
BRANCH  22  23
HETATM   23  C06   D T 601      -4.680  12.129   0.931  1.00 46.85     0.143 C 
BRANCH  23  24
HETATM   24  N03   D T 601      -5.674  12.275   2.062  1.00 51.06    -0.411 N 
BRANCH  24  25
HETATM   25  C02   D T 601      -7.041  11.598   2.027  1.00 53.85     0.112 C 
HETATM   26  C01   D T 601      -7.454  10.668   3.215  1.00 52.69     0.026 C 
ENDBRANCH  24  25
BRANCH  24  27
HETATM   27  C04   D T 601      -5.196  13.017   3.282  1.00 47.80     0.112 C 
HETATM   28  C05   D T 601      -4.634  12.196   4.476  1.00 44.89     0.026 C 
ENDBRANCH  24  27
ENDBRANCH  23  24
ENDBRANCH  22  23
ENDBRANCH  21  22
ENDBRANCH  18  21
ENDBRANCH  13  15
ENDBRANCH   1  13
BRANCH   8  29
HETATM   29  C26   D T 601       1.505   2.589   3.412  1.00 21.63     0.023 A 
HETATM   30  C27   D T 601       2.631   1.970   4.023  1.00 22.75     0.046 A 
HETATM   31 CL28   D T 601       3.923   2.907   4.573  1.00 22.59    -0.083 Cl
HETATM   32  C29   D T 601       2.731   0.560   4.153  1.00 24.08     0.025 A 
HETATM   33  C30   D T 601       1.666  -0.258   3.710  1.00 25.63     0.003 A 
HETATM   34  C31   D T 601       0.538   0.336   3.128  1.00 25.41     0.025 A 
HETATM   35  C32   D T 601       0.457   1.744   2.979  1.00 23.77     0.046 A 
HETATM   36 CL33   D T 601      -0.928   2.398   2.261  1.00 25.94    -0.083 Cl
ENDBRANCH   8  29
TORSDOF 9
ENDMDL
MODEL 4
REMARK VINA RESULT:    -6.874      4.158      7.045
REMARK INTER + INTRA:         -11.668
REMARK INTER:                  -9.958
REMARK INTRA:                  -1.710
REMARK UNBOUND:                -1.178
REMARK  9 active torsions:
REMARK  status: ('A' for Active; 'I' for Inactive)
REMARK    1  A    between atoms: C02_2  and  N03_3 
REMARK    2  A    between atoms: N03_3  and  C04_4 
REMARK    3  A    between atoms: N03_3  and  C06_6 
REMARK    4  A    between atoms: C06_6  and  C07_7 
REMARK    5  A    between atoms: C07_7  and  O08_8 
REMARK    6  A    between atoms: O08_8  and  C09_9 
REMARK    7  A    between atoms: C12_12  and  N13_13 
REMARK    8  A    between atoms: N13_13  and  C14_14 
REMARK    9  A    between atoms: C21_21  and  C26_26 
ROOT
HETATM    1  C14   D T 601       2.160   8.897   1.495  1.00 17.92     0.728 A 
HETATM    2  N15   D T 601       1.440   8.333   2.486  1.00 19.07    -0.044 NA
HETATM    3  C16   D T 601       1.294   7.013   2.658  1.00 18.16     0.163 A 
HETATM    4  C17   D T 601       1.906   6.164   1.733  1.00 16.80     0.030 A 
HETATM    5  C18   D T 601       2.617   6.742   0.680  1.00 18.08     0.151 A 
HETATM    6  N19   D T 601       2.725   8.084   0.588  1.00 16.91    -0.074 NA
HETATM    7  C20   D T 601       1.762   4.769   1.865  1.00 17.65     0.034 A 
HETATM    8  C21   D T 601       1.025   4.235   2.934  1.00 18.53     0.047 A 
HETATM    9  C22   D T 601       0.422   5.143   3.839  1.00 19.48     0.260 A 
HETATM   10  O23   D T 601      -0.250   4.611   4.748  1.00 21.52    -0.267 OA
HETATM   11  N24   D T 601       0.565   6.512   3.708  1.00 19.49    -0.301 N 
HETATM   12  C25   D T 601      -0.019   7.463   4.641  1.00 20.07     0.161 C 
ENDROOT
BRANCH   1  13
HETATM   13  N13   D T 601       2.262  10.234   1.417  1.00 20.14    -0.188 N 
HETATM   14 1H13   D T 601       1.497  10.689   1.643  1.00 24.16     0.184 HD
BRANCH  13  15
HETATM   15  C12   D T 601       3.322  11.033   1.053  1.00 24.69     0.049 A 
HETATM   16  C11   D T 601       4.346  11.214   2.019  1.00 26.89     0.033 A 
HETATM   17  C10   D T 601       5.481  12.001   1.724  1.00 28.95     0.039 A 
HETATM   18  C09   D T 601       5.607  12.601   0.452  1.00 30.95     0.069 A 
HETATM   19  C35   D T 601       4.606  12.399  -0.516  1.00 28.80     0.039 A 
HETATM   20  C34   D T 601       3.478  11.632  -0.207  1.00 26.81     0.033 A 
BRANCH  18  21
HETATM   21  O08   D T 601       6.702  13.323   0.126  1.00 36.09    -0.350 OA
BRANCH  21  22
HETATM   22  C07   D T 601       7.966  12.614   0.235  1.00 42.63     0.195 C 
BRANCH  22  23
HETATM   23  C06   D T 601       8.280  11.925  -1.130  1.00 46.85     0.143 C 
BRANCH  23  24
HETATM   24  N03   D T 601       8.291  10.413  -1.066  1.00 51.06    -0.411 N 
BRANCH  24  25
HETATM   25  C02   D T 601       9.485   9.638  -0.515  1.00 53.85     0.112 C 
HETATM   26  C01   D T 601      10.321   8.746  -1.490  1.00 52.69     0.026 C 
ENDBRANCH  24  25
BRANCH  24  27
HETATM   27  C04   D T 601       7.014   9.717  -1.453  1.00 47.80     0.112 C 
HETATM   28  C05   D T 601       6.218   8.962  -0.353  1.00 44.89     0.026 C 
ENDBRANCH  24  27
ENDBRANCH  23  24
ENDBRANCH  22  23
ENDBRANCH  21  22
ENDBRANCH  18  21
ENDBRANCH  13  15
ENDBRANCH   1  13
BRANCH   8  29
HETATM   29  C26   D T 601       0.880   2.820   3.101  1.00 21.63     0.023 A 
HETATM   30  C27   D T 601       1.902   2.065   3.741  1.00 22.75     0.046 A 
HETATM   31 CL28   D T 601       3.319   2.821   4.262  1.00 22.59    -0.083 Cl
HETATM   32  C29   D T 601       1.791   0.662   3.924  1.00 24.08     0.025 A 
HETATM   33  C30   D T 601       0.618  -0.005   3.507  1.00 25.63     0.003 A 
HETATM   34  C31   D T 601      -0.410   0.726   2.897  1.00 25.41     0.025 A 
HETATM   35  C32   D T 601      -0.282   2.124   2.695  1.00 23.77     0.046 A 
HETATM   36 CL33   D T 601      -1.555   2.947   1.945  1.00 25.94    -0.083 Cl
ENDBRANCH   8  29
TORSDOF 9
ENDMDL
MODEL 5
REMARK VINA RESULT:    -6.831      4.147      7.137
REMARK INTER + INTRA:         -11.603
REMARK INTER:                  -9.889
REMARK INTRA:                  -1.715
REMARK UNBOUND:                -1.178
REMARK  9 active torsions:
REMARK  status: ('A' for Active; 'I' for Inactive)
REMARK    1  A    between atoms: C02_2  and  N03_3 
REMARK    2  A    between atoms: N03_3  and  C04_4 
REMARK    3  A    between atoms: N03_3  and  C06_6 
REMARK    4  A    between atoms: C06_6  and  C07_7 
REMARK    5  A    between atoms: C07_7  and  O08_8 
REMARK    6  A    between atoms: O08_8  and  C09_9 
REMARK    7  A    between atoms: C12_12  and  N13_13 
REMARK    8  A    between atoms: N13_13  and  C14_14 
REMARK    9  A    between atoms: C21_21  and  C26_26 
ROOT
HETATM    1  C14   D T 601       2.151   8.874   1.422  1.00 17.92     0.728 A 
HETATM    2  N15   D T 601       1.431   8.332   2.425  1.00 19.07    -0.044 NA
HETATM    3  C16   D T 601       1.291   7.016   2.630  1.00 18.16     0.163 A 
HETATM    4  C17   D T 601       1.910   6.146   1.730  1.00 16.80     0.030 A 
HETATM    5  C18   D T 601       2.621   6.700   0.663  1.00 18.08     0.151 A 
HETATM    6  N19   D T 601       2.723   8.040   0.537  1.00 16.91    -0.074 NA
HETATM    7  C20   D T 601       1.772   4.754   1.897  1.00 17.65     0.034 A 
HETATM    8  C21   D T 601       1.035   4.245   2.978  1.00 18.53     0.047 A 
HETATM    9  C22   D T 601       0.425   5.173   3.857  1.00 19.48     0.260 A 
HETATM   10  O23   D T 601      -0.246   4.662   4.778  1.00 21.52    -0.267 OA
HETATM   11  N24   D T 601       0.562   6.539   3.692  1.00 19.49    -0.301 N 
HETATM   12  C25   D T 601      -0.029   7.511   4.597  1.00 20.07     0.161 C 
ENDROOT
BRANCH   1  13
HETATM   13  N13   D T 601       2.247  10.208   1.309  1.00 20.14    -0.188 N 
HETATM   14 1H13   D T 601       1.471  10.664   1.493  1.00 24.16     0.184 HD
BRANCH  13  15
HETATM   15  C12   D T 601       3.315  11.006   0.961  1.00 24.69     0.049 A 
HETATM   16  C11   D T 601       4.380  11.089   1.896  1.00 26.89     0.033 A 
HETATM   17  C10   D T 601       5.523  11.867   1.614  1.00 28.95     0.039 A 
HETATM   18  C09   D T 601       5.618  12.555   0.385  1.00 30.95     0.069 A 
HETATM   19  C35   D T 601       4.576  12.451  -0.555  1.00 28.80     0.039 A 
HETATM   20  C34   D T 601       3.439  11.691  -0.257  1.00 26.81     0.033 A 
BRANCH  18  21
HETATM   21  O08   D T 601       6.720  13.272   0.068  1.00 36.09    -0.350 OA
BRANCH  21  22
HETATM   22  C07   D T 601       7.985  12.592   0.291  1.00 42.63     0.195 C 
BRANCH  22  23
HETATM   23  C06   D T 601       8.399  11.850  -1.018  1.00 46.85     0.143 C 
BRANCH  23  24
HETATM   24  N03   D T 601       8.196  10.352  -0.965  1.00 51.06    -0.411 N 
BRANCH  24  25
HETATM   25  C02   D T 601       6.893   9.698  -1.417  1.00 53.85     0.112 C 
HETATM   26  C01   D T 601       6.136   8.756  -0.423  1.00 52.69     0.026 C 
ENDBRANCH  24  25
BRANCH  24  27
HETATM   27  C04   D T 601       9.390   9.527  -0.565  1.00 47.80     0.112 C 
HETATM   28  C05   D T 601      10.422   9.138  -1.660  1.00 44.89     0.026 C 
ENDBRANCH  24  27
ENDBRANCH  23  24
ENDBRANCH  22  23
ENDBRANCH  21  22
ENDBRANCH  18  21
ENDBRANCH  13  15
ENDBRANCH   1  13
BRANCH   8  29
HETATM   29  C26   D T 601       0.896   2.834   3.181  1.00 21.63     0.023 A 
HETATM   30  C27   D T 601      -0.263   2.154   2.716  1.00 22.75     0.046 A 
HETATM   31 CL28   D T 601      -1.512   3.011   1.969  1.00 22.59    -0.083 Cl
HETATM   32  C29   D T 601      -0.433   0.756   2.897  1.00 24.08     0.025 A 
HETATM   33  C30   D T 601       0.593   0.003   3.512  1.00 25.63     0.003 A 
HETATM   34  C31   D T 601       1.753   0.653   3.954  1.00 25.41     0.025 A 
HETATM   35  C32   D T 601       1.904   2.053   3.791  1.00 23.77     0.046 A 
HETATM   36 CL33   D T 601       3.326   2.779   4.354  1.00 25.94    -0.083 Cl
ENDBRANCH   8  29
TORSDOF 9
ENDMDL
MODEL 6
REMARK VINA RESULT:    -6.742      3.570      6.645
REMARK INTER + INTRA:         -11.466
REMARK INTER:                 -10.376
REMARK INTRA:                  -1.090
REMARK UNBOUND:                -1.178
REMARK  9 active torsions:
REMARK  status: ('A' for Active; 'I' for Inactive)
REMARK    1  A    between atoms: C02_2  and  N03_3 
REMARK    2  A    between atoms: N03_3  and  C04_4 
REMARK    3  A    between atoms: N03_3  and  C06_6 
REMARK    4  A    between atoms: C06_6  and  C07_7 
REMARK    5  A    between atoms: C07_7  and  O08_8 
REMARK    6  A    between atoms: O08_8  and  C09_9 
REMARK    7  A    between atoms: C12_12  and  N13_13 
REMARK    8  A    between atoms: N13_13  and  C14_14 
REMARK    9  A    between atoms: C21_21  and  C26_26 
ROOT
HETATM    1  C14   D T 601       0.638   9.381   2.777  1.00 17.92     0.728 A 
HETATM    2  N15   D T 601       1.414   8.489   2.130  1.00 19.07    -0.044 NA
HETATM    3  C16   D T 601       1.430   7.174   2.386  1.00 18.16     0.163 A 
HETATM    4  C17   D T 601       0.608   6.699   3.410  1.00 16.80     0.030 A 
HETATM    5  C18   D T 601      -0.167   7.623   4.113  1.00 18.08     0.151 A 
HETATM    6  N19   D T 601      -0.133   8.931   3.782  1.00 16.91    -0.074 NA
HETATM    7  C20   D T 601       0.607   5.326   3.725  1.00 17.65     0.034 A 
HETATM    8  C21   D T 601       1.415   4.437   2.997  1.00 18.53     0.047 A 
HETATM    9  C22   D T 601       2.233   4.974   1.973  1.00 19.48     0.260 A 
HETATM   10  O23   D T 601       2.954   4.141   1.386  1.00 21.52    -0.267 OA
HETATM   11  N24   D T 601       2.230   6.322   1.665  1.00 19.49    -0.301 N 
HETATM   12  C25   D T 601       3.038   6.893   0.599  1.00 20.07     0.161 C 
ENDROOT
BRANCH   1  13
HETATM   13  N13   D T 601       0.679  10.678   2.436  1.00 20.14    -0.188 N 
HETATM   14 1H13   D T 601       0.240  11.240   3.014  1.00 24.16     0.184 HD
BRANCH  13  15
HETATM   15  C12   D T 601       1.272  11.306   1.363  1.00 24.69     0.049 A 
HETATM   16  C11   D T 601       2.544  11.894   1.590  1.00 26.89     0.033 A 
HETATM   17  C10   D T 601       3.234  12.540   0.541  1.00 28.95     0.039 A 
HETATM   18  C09   D T 601       2.663  12.588  -0.750  1.00 30.95     0.069 A 
HETATM   19  C35   D T 601       1.415  11.981  -0.983  1.00 28.80     0.039 A 
HETATM   20  C34   D T 601       0.732  11.359   0.068  1.00 26.81     0.033 A 
BRANCH  18  21
HETATM   21  O08   D T 601       3.319  13.160  -1.783  1.00 36.09    -0.350 OA
BRANCH  21  22
HETATM   22  C07   D T 601       4.764  13.225  -1.639  1.00 42.63     0.195 C 
BRANCH  22  23
HETATM   23  C06   D T 601       5.423  13.019  -3.039  1.00 46.85     0.143 C 
BRANCH  23  24
HETATM   24  N03   D T 601       6.635  12.114  -3.020  1.00 51.06    -0.411 N 
BRANCH  24  25
HETATM   25  C02   D T 601       7.602  12.036  -4.199  1.00 53.85     0.112 C 
HETATM   26  C01   D T 601       7.062  11.567  -5.589  1.00 52.69     0.026 C 
ENDBRANCH  24  25
BRANCH  24  27
HETATM   27  C04   D T 601       6.911  11.390  -1.729  1.00 47.80     0.112 C 
HETATM   28  C05   D T 601       6.589   9.872  -1.647  1.00 44.89     0.026 C 
ENDBRANCH  24  27
ENDBRANCH  23  24
ENDBRANCH  22  23
ENDBRANCH  21  22
ENDBRANCH  18  21
ENDBRANCH  13  15
ENDBRANCH   1  13
BRANCH   8  29
HETATM   29  C26   D T 601       1.418   3.034   3.286  1.00 21.63     0.023 A 
HETATM   30  C27   D T 601       0.381   2.197   2.788  1.00 22.75     0.046 A 
HETATM   31 CL28   D T 601      -0.892   2.858   1.896  1.00 22.59    -0.083 Cl
HETATM   32  C29   D T 601       0.353   0.803   3.052  1.00 24.08     0.025 A 
HETATM   33  C30   D T 601       1.405   0.212   3.789  1.00 25.63     0.003 A 
HETATM   34  C31   D T 601       2.448   1.017   4.267  1.00 25.41     0.025 A 
HETATM   35  C32   D T 601       2.455   2.413   4.019  1.00 23.77     0.046 A 
HETATM   36 CL33   D T 601       3.739   3.330   4.631  1.00 25.94    -0.083 Cl
ENDBRANCH   8  29
TORSDOF 9
ENDMDL
MODEL 7
REMARK VINA RESULT:    -6.737      4.412      7.266
REMARK INTER + INTRA:         -11.458
REMARK INTER:                 -10.508
REMARK INTRA:                  -0.950
REMARK UNBOUND:                -1.178
REMARK  9 active torsions:
REMARK  status: ('A' for Active; 'I' for Inactive)
REMARK    1  A    between atoms: C02_2  and  N03_3 
REMARK    2  A    between atoms: N03_3  and  C04_4 
REMARK    3  A    between atoms: N03_3  and  C06_6 
REMARK    4  A    between atoms: C06_6  and  C07_7 
REMARK    5  A    between atoms: C07_7  and  O08_8 
REMARK    6  A    between atoms: O08_8  and  C09_9 
REMARK    7  A    between atoms: C12_12  and  N13_13 
REMARK    8  A    between atoms: N13_13  and  C14_14 
REMARK    9  A    between atoms: C21_21  and  C26_26 
ROOT
HETATM    1  C14   D T 601       2.024   8.943   1.446  1.00 17.92     0.728 A 
HETATM    2  N15   D T 601       1.330   8.385   2.459  1.00 19.07    -0.044 NA
HETATM    3  C16   D T 601       1.209   7.066   2.656  1.00 18.16     0.163 A 
HETATM    4  C17   D T 601       1.820   6.210   1.737  1.00 16.80     0.030 A 
HETATM    5  C18   D T 601       2.504   6.781   0.662  1.00 18.08     0.151 A 
HETATM    6  N19   D T 601       2.588   8.122   0.544  1.00 16.91    -0.074 NA
HETATM    7  C20   D T 601       1.701   4.816   1.896  1.00 17.65     0.034 A 
HETATM    8  C21   D T 601       0.991   4.290   2.987  1.00 18.53     0.047 A 
HETATM    9  C22   D T 601       0.387   5.204   3.885  1.00 19.48     0.260 A 
HETATM   10  O23   D T 601      -0.260   4.677   4.814  1.00 21.52    -0.267 OA
HETATM   11  N24   D T 601       0.506   6.572   3.727  1.00 19.49    -0.301 N 
HETATM   12  C25   D T 601      -0.079   7.531   4.652  1.00 20.07     0.161 C 
ENDROOT
BRANCH   1  13
HETATM   13  N13   D T 601       2.102  10.279   1.342  1.00 20.14    -0.188 N 
HETATM   14 1H13   D T 601       1.520  10.739   1.883  1.00 24.16     0.184 HD
BRANCH  13  15
HETATM   15  C12   D T 601       2.910  11.073   0.558  1.00 24.69     0.049 A 
HETATM   16  C11   D T 601       4.311  10.885   0.691  1.00 26.89     0.033 A 
HETATM   17  C10   D T 601       5.213  11.642  -0.088  1.00 28.95     0.039 A 
HETATM   18  C09   D T 601       4.720  12.581  -1.020  1.00 30.95     0.069 A 
HETATM   19  C35   D T 601       3.331  12.747  -1.173  1.00 28.80     0.039 A 
HETATM   20  C34   D T 601       2.446  12.006  -0.383  1.00 26.81     0.033 A 
BRANCH  18  21
HETATM   21  O08   D T 601       5.558  13.287  -1.811  1.00 36.09    -0.350 OA
BRANCH  21  22
HETATM   22  C07   D T 601       5.483  12.973  -3.229  1.00 42.63     0.195 C 
BRANCH  22  23
HETATM   23  C06   D T 601       6.389  11.736  -3.522  1.00 46.85     0.143 C 
BRANCH  23  24
HETATM   24  N03   D T 601       7.594  12.049  -4.383  1.00 51.06    -0.411 N 
BRANCH  24  25
HETATM   25  C02   D T 601       7.459  12.388  -5.865  1.00 53.85     0.112 C 
HETATM   26  C01   D T 601       8.419  13.455  -6.485  1.00 52.69     0.026 C 
ENDBRANCH  24  25
BRANCH  24  27
HETATM   27  C04   D T 601       8.919  12.137  -3.674  1.00 47.80     0.112 C 
HETATM   28  C05   D T 601       9.044  11.514  -2.256  1.00 44.89     0.026 C 
ENDBRANCH  24  27
ENDBRANCH  23  24
ENDBRANCH  22  23
ENDBRANCH  21  22
ENDBRANCH  18  21
ENDBRANCH  13  15
ENDBRANCH   1  13
BRANCH   8  29
HETATM   29  C26   D T 601       0.872   2.875   3.181  1.00 21.63     0.023 A 
HETATM   30  C27   D T 601      -0.284   2.184   2.724  1.00 22.75     0.046 A 
HETATM   31 CL28   D T 601      -1.552   3.030   1.998  1.00 22.59    -0.083 Cl
HETATM   32  C29   D T 601      -0.434   0.783   2.898  1.00 24.08     0.025 A 
HETATM   33  C30   D T 601       0.608   0.038   3.495  1.00 25.63     0.003 A 
HETATM   34  C31   D T 601       1.765   0.700   3.928  1.00 25.41     0.025 A 
HETATM   35  C32   D T 601       1.897   2.103   3.773  1.00 23.77     0.046 A 
HETATM   36 CL33   D T 601       3.316   2.842   4.325  1.00 25.94    -0.083 Cl
ENDBRANCH   8  29
TORSDOF 9
ENDMDL
MODEL 8
REMARK VINA RESULT:    -6.734      5.804      9.287
REMARK INTER + INTRA:         -11.455
REMARK INTER:                 -10.030
REMARK INTRA:                  -1.425
REMARK UNBOUND:                -1.178
REMARK  9 active torsions:
REMARK  status: ('A' for Active; 'I' for Inactive)
REMARK    1  A    between atoms: C02_2  and  N03_3 
REMARK    2  A    between atoms: N03_3  and  C04_4 
REMARK    3  A    between atoms: N03_3  and  C06_6 
REMARK    4  A    between atoms: C06_6  and  C07_7 
REMARK    5  A    between atoms: C07_7  and  O08_8 
REMARK    6  A    between atoms: O08_8  and  C09_9 
REMARK    7  A    between atoms: C12_12  and  N13_13 
REMARK    8  A    between atoms: N13_13  and  C14_14 
REMARK    9  A    between atoms: C21_21  and  C26_26 
ROOT
HETATM    1  C14   D T 601       4.272   1.078   3.879  1.00 17.92     0.728 A 
HETATM    2  N15   D T 601       5.616   1.059   3.986  1.00 19.07    -0.044 NA
HETATM    3  C16   D T 601       6.300   0.209   4.764  1.00 18.16     0.163 A 
HETATM    4  C17   D T 601       5.572  -0.699   5.535  1.00 16.80     0.030 A 
HETATM    5  C18   D T 601       4.178  -0.656   5.461  1.00 18.08     0.151 A 
HETATM    6  N19   D T 601       3.568   0.225   4.641  1.00 16.91    -0.074 NA
HETATM    7  C20   D T 601       6.250  -1.598   6.382  1.00 17.65     0.034 A 
HETATM    8  C21   D T 601       7.654  -1.593   6.432  1.00 18.53     0.047 A 
HETATM    9  C22   D T 601       8.340  -0.647   5.632  1.00 19.48     0.260 A 
HETATM   10  O23   D T 601       9.584  -0.668   5.746  1.00 21.52    -0.267 OA
HETATM   11  N24   D T 601       7.672   0.232   4.801  1.00 19.49    -0.301 N 
HETATM   12  C25   D T 601       8.355   1.193   3.949  1.00 20.07     0.161 C 
ENDROOT
BRANCH   1  13
HETATM   13  N13   D T 601       3.677   1.958   3.057  1.00 20.14    -0.188 N 
HETATM   14 1H13   D T 601       3.908   1.871   2.173  1.00 24.16     0.184 HD
BRANCH  13  15
HETATM   15  C12   D T 601       2.781   2.970   3.322  1.00 24.69     0.049 A 
HETATM   16  C11   D T 601       1.406   2.668   3.138  1.00 26.89     0.033 A 
HETATM   17  C10   D T 601       0.416   3.639   3.406  1.00 28.95     0.039 A 
HETATM   18  C09   D T 601       0.794   4.915   3.877  1.00 30.95     0.069 A 
HETATM   19  C35   D T 601       2.155   5.206   4.086  1.00 28.80     0.039 A 
HETATM   20  C34   D T 601       3.128   4.243   3.801  1.00 26.81     0.033 A 
BRANCH  18  21
HETATM   21  O08   D T 601      -0.133   5.850   4.183  1.00 36.09    -0.350 OA
BRANCH  21  22
HETATM   22  C07   D T 601      -0.550   6.695   3.076  1.00 42.63     0.195 C 
BRANCH  22  23
HETATM   23  C06   D T 601      -0.194   8.178   3.408  1.00 46.85     0.143 C 
BRANCH  23  24
HETATM   24  N03   D T 601       1.282   8.493   3.304  1.00 51.06    -0.411 N 
BRANCH  24  25
HETATM   25  C02   D T 601       2.015   8.488   1.966  1.00 53.85     0.112 C 
HETATM   26  C01   D T 601       3.574   8.359   1.959  1.00 52.69     0.026 C 
ENDBRANCH  24  25
BRANCH  24  27
HETATM   27  C04   D T 601       1.963   8.939   4.571  1.00 47.80     0.112 C 
HETATM   28  C05   D T 601       1.407   8.432   5.930  1.00 44.89     0.026 C 
ENDBRANCH  24  27
ENDBRANCH  23  24
ENDBRANCH  22  23
ENDBRANCH  21  22
ENDBRANCH  18  21
ENDBRANCH  13  15
ENDBRANCH   1  13
BRANCH   8  29
HETATM   29  C26   D T 601       8.367  -2.510   7.270  1.00 21.63     0.023 A 
HETATM   30  C27   D T 601       8.682  -3.815   6.800  1.00 22.75     0.046 A 
HETATM   31 CL28   D T 601       8.172  -4.315   5.270  1.00 22.59    -0.083 Cl
HETATM   32  C29   D T 601       9.389  -4.748   7.602  1.00 24.08     0.025 A 
HETATM   33  C30   D T 601       9.839  -4.365   8.885  1.00 25.63     0.003 A 
HETATM   34  C31   D T 601       9.560  -3.074   9.356  1.00 25.41     0.025 A 
HETATM   35  C32   D T 601       8.831  -2.156   8.557  1.00 23.77     0.046 A 
HETATM   36 CL33   D T 601       8.519  -0.616   9.187  1.00 25.94    -0.083 Cl
ENDBRANCH   8  29
TORSDOF 9
ENDMDL
MODEL 9
REMARK VINA RESULT:    -6.734      5.887      9.293
REMARK INTER + INTRA:         -11.455
REMARK INTER:                 -10.375
REMARK INTRA:                  -1.080
REMARK UNBOUND:                -1.178
REMARK  9 active torsions:
REMARK  status: ('A' for Active; 'I' for Inactive)
REMARK    1  A    between atoms: C02_2  and  N03_3 
REMARK    2  A    between atoms: N03_3  and  C04_4 
REMARK    3  A    between atoms: N03_3  and  C06_6 
REMARK    4  A    between atoms: C06_6  and  C07_7 
REMARK    5  A    between atoms: C07_7  and  O08_8 
REMARK    6  A    between atoms: O08_8  and  C09_9 
REMARK    7  A    between atoms: C12_12  and  N13_13 
REMARK    8  A    between atoms: N13_13  and  C14_14 
REMARK    9  A    between atoms: C21_21  and  C26_26 
ROOT
HETATM    1  C14   D T 601       4.023   0.713   4.176  1.00 17.92     0.728 A 
HETATM    2  N15   D T 601       5.370   0.747   4.223  1.00 19.07    -0.044 NA
HETATM    3  C16   D T 601       6.122  -0.070   4.972  1.00 18.16     0.163 A 
HETATM    4  C17   D T 601       5.467  -1.003   5.778  1.00 16.80     0.030 A 
HETATM    5  C18   D T 601       4.070  -1.016   5.767  1.00 18.08     0.151 A 
HETATM    6  N19   D T 601       3.389  -0.164   4.973  1.00 16.91    -0.074 NA
HETATM    7  C20   D T 601       6.218  -1.870   6.596  1.00 17.65     0.034 A 
HETATM    8  C21   D T 601       7.621  -1.809   6.583  1.00 18.53     0.047 A 
HETATM    9  C22   D T 601       8.233  -0.840   5.750  1.00 19.48     0.260 A 
HETATM   10  O23   D T 601       9.480  -0.811   5.807  1.00 21.52    -0.267 OA
HETATM   11  N24   D T 601       7.493   0.008   4.947  1.00 19.49    -0.301 N 
HETATM   12  C25   D T 601       8.098   0.990   4.062  1.00 20.07     0.161 C 
ENDROOT
BRANCH   1  13
HETATM   13  N13   D T 601       3.358   1.564   3.380  1.00 20.14    -0.188 N 
HETATM   14 1H13   D T 601       3.615   1.543   2.499  1.00 24.16     0.184 HD
BRANCH  13  15
HETATM   15  C12   D T 601       2.355   2.463   3.666  1.00 24.69     0.049 A 
HETATM   16  C11   D T 601       2.728   3.830   3.754  1.00 26.89     0.033 A 
HETATM   17  C10   D T 601       1.761   4.822   4.024  1.00 28.95     0.039 A 
HETATM   18  C09   D T 601       0.408   4.457   4.191  1.00 30.95     0.069 A 
HETATM   19  C35   D T 601       0.032   3.106   4.076  1.00 28.80     0.039 A 
HETATM   20  C34   D T 601       1.001   2.128   3.827  1.00 26.81     0.033 A 
BRANCH  18  21
HETATM   21  O08   D T 601      -0.547   5.389   4.407  1.00 36.09    -0.350 OA
BRANCH  21  22
HETATM   22  C07   D T 601      -0.526   6.519   3.491  1.00 42.63     0.195 C 
BRANCH  22  23
HETATM   23  C06   D T 601      -0.048   7.788   4.264  1.00 46.85     0.143 C 
BRANCH  23  24
HETATM   24  N03   D T 601       0.854   8.695   3.456  1.00 51.06    -0.411 N 
BRANCH  24  25
HETATM   25  C02   D T 601       0.300   9.839   2.611  1.00 53.85     0.112 C 
HETATM   26  C01   D T 601      -1.247   9.954   2.417  1.00 52.69     0.026 C 
ENDBRANCH  24  25
BRANCH  24  27
HETATM   27  C04   D T 601       2.336   8.493   3.630  1.00 47.80     0.112 C 
HETATM   28  C05   D T 601       2.914   8.449   5.072  1.00 44.89     0.026 C 
ENDBRANCH  24  27
ENDBRANCH  23  24
ENDBRANCH  22  23
ENDBRANCH  21  22
ENDBRANCH  18  21
ENDBRANCH  13  15
ENDBRANCH   1  13
BRANCH   8  29
HETATM   29  C26   D T 601       8.408  -2.693   7.391  1.00 21.63     0.023 A 
HETATM   30  C27   D T 601       8.837  -2.288   8.685  1.00 22.75     0.046 A 
HETATM   31 CL28   D T 601       8.470  -0.743   9.260  1.00 22.59    -0.083 Cl
HETATM   32  C29   D T 601       9.616  -3.138   9.514  1.00 24.08     0.025 A 
HETATM   33  C30   D T 601       9.938  -4.440   9.071  1.00 25.63     0.003 A 
HETATM   34  C31   D T 601       9.502  -4.865   7.808  1.00 25.41     0.025 A 
HETATM   35  C32   D T 601       8.745  -4.001   6.976  1.00 23.77     0.046 A 
HETATM   36 CL33   D T 601       8.257  -4.571   5.460  1.00 25.94    -0.083 Cl
ENDBRANCH   8  29
TORSDOF 9
ENDMDL
