MODEL 1
REMARK VINA RESULT:    -8.840      0.000      0.000
REMARK INTER + INTRA:         -14.490
REMARK INTER:                 -13.491
REMARK INTRA:                  -0.999
REMARK UNBOUND:                -0.999
REMARK  9 active torsions:
REMARK  status: ('A' for Active; 'I' for Inactive)
REMARK    1  A    between atoms: C02_2  and  N03_3 
REMARK    2  A    between atoms: N03_3  and  C04_4 
REMARK    3  A    between atoms: N03_3  and  C06_6 
REMARK    4  A    between atoms: C06_6  and  C07_7 
REMARK    5  A    between atoms: C07_7  and  O08_8 
REMARK    6  A    between atoms: O08_8  and  C09_9 
REMARK    7  A    between atoms: C12_12  and  N13_13 
REMARK    8  A    between atoms: N13_13  and  C14_14 
REMARK    9  A    between atoms: C21_21  and  C26_26 
ROOT
HETATM    1  C14   D T 601      -3.528  -6.449  11.127  1.00 17.92     0.728 A 
HETATM    2  N15   D T 601      -3.403  -7.504  11.956  1.00 19.07    -0.044 NA
HETATM    3  C16   D T 601      -2.268  -8.190  12.144  1.00 18.16     0.163 A 
HETATM    4  C17   D T 601      -1.145  -7.803  11.411  1.00 16.80     0.030 A 
HETATM    5  C18   D T 601      -1.276  -6.738  10.517  1.00 18.08     0.151 A 
HETATM    6  N19   D T 601      -2.456  -6.093  10.399  1.00 16.91    -0.074 NA
HETATM    7  C20   D T 601       0.065  -8.510  11.564  1.00 17.65     0.034 A 
HETATM    8  C21   D T 601       0.144  -9.583  12.464  1.00 18.53     0.047 A 
HETATM    9  C22   D T 601      -1.028  -9.934  13.178  1.00 19.48     0.260 A 
HETATM   10  O23   D T 601      -0.905 -10.918  13.936  1.00 21.52    -0.267 OA
HETATM   11  N24   D T 601      -2.214  -9.239  13.027  1.00 19.49    -0.301 N 
HETATM   12  C25   D T 601      -3.422  -9.562  13.769  1.00 20.07     0.161 C 
ENDROOT
BRANCH   1  13
HETATM   13  N13   D T 601      -4.705  -5.813  11.019  1.00 20.14    -0.188 N 
HETATM   14 1H13   D T 601      -5.407  -6.235  11.432  1.00 24.16     0.184 HD
BRANCH  13  15
HETATM   15  C12   D T 601      -5.033  -4.631  10.393  1.00 24.69     0.049 A 
HETATM   16  C11   D T 601      -4.563  -3.437  10.999  1.00 26.89     0.033 A 
HETATM   17  C10   D T 601      -4.838  -2.180  10.415  1.00 28.95     0.039 A 
HETATM   18  C09   D T 601      -5.568  -2.111   9.209  1.00 30.95     0.069 A 
HETATM   19  C35   D T 601      -6.010  -3.296   8.593  1.00 28.80     0.039 A 
HETATM   20  C34   D T 601      -5.749  -4.535   9.189  1.00 26.81     0.033 A 
BRANCH  18  21
HETATM   21  O08   D T 601      -5.807  -0.927   8.604  1.00 36.09    -0.350 OA
BRANCH  21  22
HETATM   22  C07   D T 601      -5.178   0.226   9.227  1.00 42.63     0.195 C 
BRANCH  22  23
HETATM   23  C06   D T 601      -5.340   1.462   8.288  1.00 46.85     0.143 C 
BRANCH  23  24
HETATM   24  N03   D T 601      -4.459   2.634   8.660  1.00 51.06    -0.411 N 
BRANCH  24  25
HETATM   25  C02   D T 601      -4.663   4.020   8.054  1.00 53.85     0.112 C 
HETATM   26  C01   D T 601      -5.678   4.188   6.876  1.00 52.69     0.026 C 
ENDBRANCH  24  25
BRANCH  24  27
HETATM   27  C04   D T 601      -3.454   2.398   9.756  1.00 47.80     0.112 C 
HETATM   28  C05   D T 601      -1.944   2.548   9.422  1.00 44.89     0.026 C 
ENDBRANCH  24  27
ENDBRANCH  23  24
ENDBRANCH  22  23
ENDBRANCH  21  22
ENDBRANCH  18  21
ENDBRANCH  13  15
ENDBRANCH   1  13
BRANCH   8  29
HETATM   29  C26   D T 601       1.368 -10.304  12.651  1.00 21.63     0.023 A 
HETATM   30  C27   D T 601       1.634 -11.475  11.890  1.00 22.75     0.046 A 
HETATM   31 CL28   D T 601       0.487 -12.059  10.797  1.00 22.59    -0.083 Cl
HETATM   32  C29   D T 601       2.837 -12.212  12.047  1.00 24.08     0.025 A 
HETATM   33  C30   D T 601       3.825 -11.751  12.946  1.00 25.63     0.003 A 
HETATM   34  C31   D T 601       3.590 -10.584  13.687  1.00 25.41     0.025 A 
HETATM   35  C32   D T 601       2.375  -9.868  13.542  1.00 23.77     0.046 A 
HETATM   36 CL33   D T 601       2.151  -8.471  14.471  1.00 25.94    -0.083 Cl
ENDBRANCH   8  29
TORSDOF 9
ENDMDL
MODEL 2
REMARK VINA RESULT:    -8.724      0.418      2.207
REMARK INTER + INTRA:         -14.314
REMARK INTER:                 -13.271
REMARK INTRA:                  -1.043
REMARK UNBOUND:                -0.999
REMARK  9 active torsions:
REMARK  status: ('A' for Active; 'I' for Inactive)
REMARK    1  A    between atoms: C02_2  and  N03_3 
REMARK    2  A    between atoms: N03_3  and  C04_4 
REMARK    3  A    between atoms: N03_3  and  C06_6 
REMARK    4  A    between atoms: C06_6  and  C07_7 
REMARK    5  A    between atoms: C07_7  and  O08_8 
REMARK    6  A    between atoms: O08_8  and  C09_9 
REMARK    7  A    between atoms: C12_12  and  N13_13 
REMARK    8  A    between atoms: N13_13  and  C14_14 
REMARK    9  A    between atoms: C21_21  and  C26_26 
ROOT
HETATM    1  C14   D T 601      -3.448  -6.357  11.073  1.00 17.92     0.728 A 
HETATM    2  N15   D T 601      -3.360  -7.451  11.855  1.00 19.07    -0.044 NA
HETATM    3  C16   D T 601      -2.223  -8.113  12.107  1.00 18.16     0.163 A 
HETATM    4  C17   D T 601      -1.054  -7.656  11.494  1.00 16.80     0.030 A 
HETATM    5  C18   D T 601      -1.144  -6.550  10.647  1.00 18.08     0.151 A 
HETATM    6  N19   D T 601      -2.330  -5.933  10.459  1.00 16.91    -0.074 NA
HETATM    7  C20   D T 601       0.160  -8.336  11.716  1.00 17.65     0.034 A 
HETATM    8  C21   D T 601       0.197  -9.452  12.564  1.00 18.53     0.047 A 
HETATM    9  C22   D T 601      -1.019  -9.873  13.155  1.00 19.48     0.260 A 
HETATM   10  O23   D T 601      -0.929 -10.893  13.871  1.00 21.52    -0.267 OA
HETATM   11  N24   D T 601      -2.209  -9.206  12.937  1.00 19.49    -0.301 N 
HETATM   12  C25   D T 601      -3.466  -9.602  13.554  1.00 20.07     0.161 C 
ENDROOT
BRANCH   1  13
HETATM   13  N13   D T 601      -4.632  -5.751  10.896  1.00 20.14    -0.188 N 
HETATM   14 1H13   D T 601      -5.359  -6.249  11.149  1.00 24.16     0.184 HD
BRANCH  13  15
HETATM   15  C12   D T 601      -4.935  -4.503  10.397  1.00 24.69     0.049 A 
HETATM   16  C11   D T 601      -5.732  -4.462   9.223  1.00 26.89     0.033 A 
HETATM   17  C10   D T 601      -6.106  -3.225   8.653  1.00 28.95     0.039 A 
HETATM   18  C09   D T 601      -5.701  -2.019   9.265  1.00 30.95     0.069 A 
HETATM   19  C35   D T 601      -4.935  -2.059  10.443  1.00 28.80     0.039 A 
HETATM   20  C34   D T 601      -4.554  -3.289  10.990  1.00 26.81     0.033 A 
BRANCH  18  21
HETATM   21  O08   D T 601      -6.082  -0.822   8.768  1.00 36.09    -0.350 OA
BRANCH  21  22
HETATM   22  C07   D T 601      -5.458   0.335   9.391  1.00 42.63     0.195 C 
BRANCH  22  23
HETATM   23  C06   D T 601      -5.233   1.436   8.308  1.00 46.85     0.143 C 
BRANCH  23  24
HETATM   24  N03   D T 601      -4.082   2.369   8.611  1.00 51.06    -0.411 N 
BRANCH  24  25
HETATM   25  C02   D T 601      -2.745   1.854   9.136  1.00 53.85     0.112 C 
HETATM   26  C01   D T 601      -2.407   2.034  10.652  1.00 52.69     0.026 C 
ENDBRANCH  24  25
BRANCH  24  27
HETATM   27  C04   D T 601      -4.277   3.816   8.247  1.00 47.80     0.112 C 
HETATM   28  C05   D T 601      -5.406   4.182   7.244  1.00 44.89     0.026 C 
ENDBRANCH  24  27
ENDBRANCH  23  24
ENDBRANCH  22  23
ENDBRANCH  21  22
ENDBRANCH  18  21
ENDBRANCH  13  15
ENDBRANCH   1  13
BRANCH   8  29
HETATM   29  C26   D T 601       1.424 -10.146  12.820  1.00 21.63     0.023 A 
HETATM   30  C27   D T 601       2.259  -9.752  13.901  1.00 22.75     0.046 A 
HETATM   31 CL28   D T 601       1.840  -8.428  14.863  1.00 22.59    -0.083 Cl
HETATM   32  C29   D T 601       3.480 -10.419  14.186  1.00 24.08     0.025 A 
HETATM   33  C30   D T 601       3.861 -11.537  13.409  1.00 25.63     0.003 A 
HETATM   34  C31   D T 601       3.038 -11.955  12.354  1.00 25.41     0.025 A 
HETATM   35  C32   D T 601       1.832 -11.267  12.062  1.00 23.77     0.046 A 
HETATM   36 CL33   D T 601       0.887 -11.818  10.770  1.00 25.94    -0.083 Cl
ENDBRANCH   8  29
TORSDOF 9
ENDMDL
MODEL 3
REMARK VINA RESULT:    -8.568      3.969      5.037
REMARK INTER + INTRA:         -14.075
REMARK INTER:                 -12.928
REMARK INTRA:                  -1.147
REMARK UNBOUND:                -0.999
REMARK  9 active torsions:
REMARK  status: ('A' for Active; 'I' for Inactive)
REMARK    1  A    between atoms: C02_2  and  N03_3 
REMARK    2  A    between atoms: N03_3  and  C04_4 
REMARK    3  A    between atoms: N03_3  and  C06_6 
REMARK    4  A    between atoms: C06_6  and  C07_7 
REMARK    5  A    between atoms: C07_7  and  O08_8 
REMARK    6  A    between atoms: O08_8  and  C09_9 
REMARK    7  A    between atoms: C12_12  and  N13_13 
REMARK    8  A    between atoms: N13_13  and  C14_14 
REMARK    9  A    between atoms: C21_21  and  C26_26 
ROOT
HETATM    1  C14   D T 601      -2.241  -5.249  11.112  1.00 17.92     0.728 A 
HETATM    2  N15   D T 601      -1.429  -4.210  10.834  1.00 19.07    -0.044 NA
HETATM    3  C16   D T 601      -0.094  -4.244  10.936  1.00 18.16     0.163 A 
HETATM    4  C17   D T 601       0.496  -5.427  11.387  1.00 16.80     0.030 A 
HETATM    5  C18   D T 601      -0.341  -6.494  11.718  1.00 18.08     0.151 A 
HETATM    6  N19   D T 601      -1.678  -6.379  11.574  1.00 16.91    -0.074 NA
HETATM    7  C20   D T 601       1.896  -5.499  11.526  1.00 17.65     0.034 A 
HETATM    8  C21   D T 601       2.694  -4.394  11.194  1.00 18.53     0.047 A 
HETATM    9  C22   D T 601       2.042  -3.219  10.746  1.00 19.48     0.260 A 
HETATM   10  O23   D T 601       2.802  -2.259  10.500  1.00 21.52    -0.267 OA
HETATM   11  N24   D T 601       0.669  -3.150  10.608  1.00 19.49    -0.301 N 
HETATM   12  C25   D T 601      -0.022  -1.965  10.125  1.00 20.07     0.161 C 
ENDROOT
BRANCH   1  13
HETATM   13  N13   D T 601      -3.568  -5.124  10.963  1.00 20.14    -0.188 N 
HETATM   14 1H13   D T 601      -4.055  -5.852  11.234  1.00 24.16     0.184 HD
BRANCH  13  15
HETATM   15  C12   D T 601      -4.321  -4.080  10.471  1.00 24.69     0.049 A 
HETATM   16  C11   D T 601      -4.179  -2.828  11.124  1.00 26.89     0.033 A 
HETATM   17  C10   D T 601      -4.900  -1.699  10.676  1.00 28.95     0.039 A 
HETATM   18  C09   D T 601      -5.754  -1.810   9.558  1.00 30.95     0.069 A 
HETATM   19  C35   D T 601      -5.874  -3.044   8.893  1.00 28.80     0.039 A 
HETATM   20  C34   D T 601      -5.170  -4.161   9.356  1.00 26.81     0.033 A 
BRANCH  18  21
HETATM   21  O08   D T 601      -6.421  -0.737   9.078  1.00 36.09    -0.350 OA
BRANCH  21  22
HETATM   22  C07   D T 601      -5.777   0.546   9.307  1.00 42.63     0.195 C 
BRANCH  22  23
HETATM   23  C06   D T 601      -4.894   0.898   8.070  1.00 46.85     0.143 C 
BRANCH  23  24
HETATM   24  N03   D T 601      -3.886   1.997   8.328  1.00 51.06    -0.411 N 
BRANCH  24  25
HETATM   25  C02   D T 601      -4.297   3.464   8.410  1.00 53.85     0.112 C 
HETATM   26  C01   D T 601      -5.316   4.024   7.364  1.00 52.69     0.026 C 
ENDBRANCH  24  25
BRANCH  24  27
HETATM   27  C04   D T 601      -2.478   1.559   8.630  1.00 47.80     0.112 C 
HETATM   28  C05   D T 601      -2.154   1.039  10.058  1.00 44.89     0.026 C 
ENDBRANCH  24  27
ENDBRANCH  23  24
ENDBRANCH  22  23
ENDBRANCH  21  22
ENDBRANCH  18  21
ENDBRANCH  13  15
ENDBRANCH   1  13
BRANCH   8  29
HETATM   29  C26   D T 601       4.121  -4.451  11.309  1.00 21.63     0.023 A 
HETATM   30  C27   D T 601       4.755  -4.129  12.540  1.00 22.75     0.046 A 
HETATM   31 CL28   D T 601       3.836  -3.626  13.865  1.00 22.59    -0.083 Cl
HETATM   32  C29   D T 601       6.165  -4.177  12.691  1.00 24.08     0.025 A 
HETATM   33  C30   D T 601       6.968  -4.602  11.608  1.00 25.63     0.003 A 
HETATM   34  C31   D T 601       6.359  -4.947  10.393  1.00 25.41     0.025 A 
HETATM   35  C32   D T 601       4.951  -4.871  10.244  1.00 23.77     0.046 A 
HETATM   36 CL33   D T 601       4.279  -5.294   8.749  1.00 25.94    -0.083 Cl
ENDBRANCH   8  29
TORSDOF 9
ENDMDL
MODEL 4
REMARK VINA RESULT:    -8.501      4.036      5.059
REMARK INTER + INTRA:         -13.973
REMARK INTER:                 -13.031
REMARK INTRA:                  -0.942
REMARK UNBOUND:                -0.999
REMARK  9 active torsions:
REMARK  status: ('A' for Active; 'I' for Inactive)
REMARK    1  A    between atoms: C02_2  and  N03_3 
REMARK    2  A    between atoms: N03_3  and  C04_4 
REMARK    3  A    between atoms: N03_3  and  C06_6 
REMARK    4  A    between atoms: C06_6  and  C07_7 
REMARK    5  A    between atoms: C07_7  and  O08_8 
REMARK    6  A    between atoms: O08_8  and  C09_9 
REMARK    7  A    between atoms: C12_12  and  N13_13 
REMARK    8  A    between atoms: N13_13  and  C14_14 
REMARK    9  A    between atoms: C21_21  and  C26_26 
ROOT
HETATM    1  C14   D T 601      -2.115  -5.277  11.095  1.00 17.92     0.728 A 
HETATM    2  N15   D T 601      -1.306  -4.248  10.775  1.00 19.07    -0.044 NA
HETATM    3  C16   D T 601       0.029  -4.271  10.886  1.00 18.16     0.163 A 
HETATM    4  C17   D T 601       0.620  -5.429  11.395  1.00 16.80     0.030 A 
HETATM    5  C18   D T 601      -0.214  -6.484  11.770  1.00 18.08     0.151 A 
HETATM    6  N19   D T 601      -1.550  -6.382  11.612  1.00 16.91    -0.074 NA
HETATM    7  C20   D T 601       2.020  -5.488  11.546  1.00 17.65     0.034 A 
HETATM    8  C21   D T 601       2.816  -4.395  11.168  1.00 18.53     0.047 A 
HETATM    9  C22   D T 601       2.161  -3.246  10.662  1.00 19.48     0.260 A 
HETATM   10  O23   D T 601       2.918  -2.294  10.377  1.00 21.52    -0.267 OA
HETATM   11  N24   D T 601       0.788  -3.190  10.513  1.00 19.49    -0.301 N 
HETATM   12  C25   D T 601       0.095  -2.032   9.971  1.00 20.07     0.161 C 
ENDROOT
BRANCH   1  13
HETATM   13  N13   D T 601      -3.442  -5.165  10.932  1.00 20.14    -0.188 N 
HETATM   14 1H13   D T 601      -3.922  -5.908  11.175  1.00 24.16     0.184 HD
BRANCH  13  15
HETATM   15  C12   D T 601      -4.203  -4.118  10.460  1.00 24.69     0.049 A 
HETATM   16  C11   D T 601      -3.965  -2.845  11.040  1.00 26.89     0.033 A 
HETATM   17  C10   D T 601      -4.687  -1.712  10.605  1.00 28.95     0.039 A 
HETATM   18  C09   D T 601      -5.640  -1.841   9.571  1.00 30.95     0.069 A 
HETATM   19  C35   D T 601      -5.856  -3.098   8.976  1.00 28.80     0.039 A 
HETATM   20  C34   D T 601      -5.149  -4.217   9.428  1.00 26.81     0.033 A 
BRANCH  18  21
HETATM   21  O08   D T 601      -6.313  -0.767   9.103  1.00 36.09    -0.350 OA
BRANCH  21  22
HETATM   22  C07   D T 601      -5.750   0.524   9.464  1.00 42.63     0.195 C 
BRANCH  22  23
HETATM   23  C06   D T 601      -5.158   1.195   8.186  1.00 46.85     0.143 C 
BRANCH  23  24
HETATM   24  N03   D T 601      -4.237   2.360   8.476  1.00 51.06    -0.411 N 
BRANCH  24  25
HETATM   25  C02   D T 601      -2.750   2.160   8.756  1.00 53.85     0.112 C 
HETATM   26  C01   D T 601      -2.259   0.774   9.288  1.00 52.69     0.026 C 
ENDBRANCH  24  25
BRANCH  24  27
HETATM   27  C04   D T 601      -4.833   3.736   8.346  1.00 47.80     0.112 C 
HETATM   28  C05   D T 601      -5.519   4.123   7.007  1.00 44.89     0.026 C 
ENDBRANCH  24  27
ENDBRANCH  23  24
ENDBRANCH  22  23
ENDBRANCH  21  22
ENDBRANCH  18  21
ENDBRANCH  13  15
ENDBRANCH   1  13
BRANCH   8  29
HETATM   29  C26   D T 601       4.242  -4.440  11.295  1.00 21.63     0.023 A 
HETATM   30  C27   D T 601       5.045  -4.880  10.207  1.00 22.75     0.046 A 
HETATM   31 CL28   D T 601       4.324  -5.405   8.773  1.00 22.59    -0.083 Cl
HETATM   32  C29   D T 601       6.461  -4.934  10.296  1.00 24.08     0.025 A 
HETATM   33  C30   D T 601       7.102  -4.495  11.477  1.00 25.63     0.003 A 
HETATM   34  C31   D T 601       6.328  -4.035  12.551  1.00 25.41     0.025 A 
HETATM   35  C32   D T 601       4.912  -4.008  12.462  1.00 23.77     0.046 A 
HETATM   36 CL33   D T 601       4.035  -3.448  13.797  1.00 25.94    -0.083 Cl
ENDBRANCH   8  29
TORSDOF 9
ENDMDL
MODEL 5
REMARK VINA RESULT:    -8.384      4.199     10.884
REMARK INTER + INTRA:         -13.794
REMARK INTER:                 -12.575
REMARK INTRA:                  -1.219
REMARK UNBOUND:                -0.999
REMARK  9 active torsions:
REMARK  status: ('A' for Active; 'I' for Inactive)
REMARK    1  A    between atoms: C02_2  and  N03_3 
REMARK    2  A    between atoms: N03_3  and  C04_4 
REMARK    3  A    between atoms: N03_3  and  C06_6 
REMARK    4  A    between atoms: C06_6  and  C07_7 
REMARK    5  A    between atoms: C07_7  and  O08_8 
REMARK    6  A    between atoms: O08_8  and  C09_9 
REMARK    7  A    between atoms: C12_12  and  N13_13 
REMARK    8  A    between atoms: N13_13  and  C14_14 
REMARK    9  A    between atoms: C21_21  and  C26_26 
ROOT
HETATM    1  C14   D T 601      -2.821  -5.165  11.070  1.00 17.92     0.728 A 
HETATM    2  N15   D T 601      -1.607  -4.675  10.749  1.00 19.07    -0.044 NA
HETATM    3  C16   D T 601      -1.271  -3.380  10.818  1.00 18.16     0.163 A 
HETATM    4  C17   D T 601      -2.253  -2.473  11.222  1.00 16.80     0.030 A 
HETATM    5  C18   D T 601      -3.526  -2.967  11.515  1.00 18.08     0.151 A 
HETATM    6  N19   D T 601      -3.775  -4.291  11.432  1.00 16.91    -0.074 NA
HETATM    7  C20   D T 601      -1.947  -1.098  11.289  1.00 17.65     0.034 A 
HETATM    8  C21   D T 601      -0.657  -0.648  10.971  1.00 18.53     0.047 A 
HETATM    9  C22   D T 601       0.297  -1.613  10.563  1.00 19.48     0.260 A 
HETATM   10  O23   D T 601       1.416  -1.147  10.259  1.00 21.52    -0.267 OA
HETATM   11  N24   D T 601      -0.004  -2.960  10.499  1.00 19.49    -0.301 N 
HETATM   12  C25   D T 601       0.966  -3.972  10.109  1.00 20.07     0.161 C 
ENDROOT
BRANCH   1  13
HETATM   13  N13   D T 601      -3.057  -6.483  10.986  1.00 20.14    -0.188 N 
HETATM   14 1H13   D T 601      -3.446  -6.754  10.201  1.00 24.16     0.184 HD
BRANCH  13  15
HETATM   15  C12   D T 601      -2.810  -7.498  11.885  1.00 24.69     0.049 A 
HETATM   16  C11   D T 601      -1.503  -7.559  12.435  1.00 26.89     0.033 A 
HETATM   17  C10   D T 601      -1.167  -8.556  13.378  1.00 28.95     0.039 A 
HETATM   18  C09   D T 601      -2.142  -9.489  13.790  1.00 30.95     0.069 A 
HETATM   19  C35   D T 601      -3.445  -9.413  13.266  1.00 28.80     0.039 A 
HETATM   20  C34   D T 601      -3.763  -8.433  12.319  1.00 26.81     0.033 A 
BRANCH  18  21
HETATM   21  O08   D T 601      -1.862 -10.425  14.723  1.00 36.09    -0.350 OA
BRANCH  21  22
HETATM   22  C07   D T 601      -1.946 -11.802  14.264  1.00 42.63     0.195 C 
BRANCH  22  23
HETATM   23  C06   D T 601      -0.602 -12.189  13.572  1.00 46.85     0.143 C 
BRANCH  23  24
HETATM   24  N03   D T 601      -0.766 -12.714  12.162  1.00 51.06    -0.411 N 
BRANCH  24  25
HETATM   25  C02   D T 601      -1.909 -13.650  11.779  1.00 53.85     0.112 C 
HETATM   26  C01   D T 601      -1.963 -14.221  10.324  1.00 52.69     0.026 C 
ENDBRANCH  24  25
BRANCH  24  27
HETATM   27  C04   D T 601       0.177 -12.163  11.127  1.00 47.80     0.112 C 
HETATM   28  C05   D T 601       0.167 -10.634  10.854  1.00 44.89     0.026 C 
ENDBRANCH  24  27
ENDBRANCH  23  24
ENDBRANCH  22  23
ENDBRANCH  21  22
ENDBRANCH  18  21
ENDBRANCH  13  15
ENDBRANCH   1  13
BRANCH   8  29
HETATM   29  C26   D T 601      -0.318   0.741  11.051  1.00 21.63     0.023 A 
HETATM   30  C27   D T 601      -0.690   1.632  10.007  1.00 22.75     0.046 A 
HETATM   31 CL28   D T 601      -1.490   1.052   8.638  1.00 22.59    -0.083 Cl
HETATM   32  C29   D T 601      -0.373   3.014  10.054  1.00 24.08     0.025 A 
HETATM   33  C30   D T 601       0.289   3.540  11.188  1.00 25.63     0.003 A 
HETATM   34  C31   D T 601       0.642   2.681  12.238  1.00 25.41     0.025 A 
HETATM   35  C32   D T 601       0.343   1.296  12.171  1.00 23.77     0.046 A 
HETATM   36 CL33   D T 601       0.804   0.312  13.469  1.00 25.94    -0.083 Cl
ENDBRANCH   8  29
TORSDOF 9
ENDMDL
MODEL 6
REMARK VINA RESULT:    -8.353      5.113      7.466
REMARK INTER + INTRA:         -13.746
REMARK INTER:                 -11.948
REMARK INTRA:                  -1.798
REMARK UNBOUND:                -0.999
REMARK  9 active torsions:
REMARK  status: ('A' for Active; 'I' for Inactive)
REMARK    1  A    between atoms: C02_2  and  N03_3 
REMARK    2  A    between atoms: N03_3  and  C04_4 
REMARK    3  A    between atoms: N03_3  and  C06_6 
REMARK    4  A    between atoms: C06_6  and  C07_7 
REMARK    5  A    between atoms: C07_7  and  O08_8 
REMARK    6  A    between atoms: O08_8  and  C09_9 
REMARK    7  A    between atoms: C12_12  and  N13_13 
REMARK    8  A    between atoms: N13_13  and  C14_14 
REMARK    9  A    between atoms: C21_21  and  C26_26 
ROOT
HETATM    1  C14   D T 601       0.294   1.288   9.926  1.00 17.92     0.728 A 
HETATM    2  N15   D T 601       0.415   0.175  10.676  1.00 19.07    -0.044 NA
HETATM    3  C16   D T 601       1.484  -0.632  10.668  1.00 18.16     0.163 A 
HETATM    4  C17   D T 601       2.534  -0.314   9.803  1.00 16.80     0.030 A 
HETATM    5  C18   D T 601       2.398   0.814   8.990  1.00 18.08     0.151 A 
HETATM    6  N19   D T 601       1.290   1.580   9.072  1.00 16.91    -0.074 NA
HETATM    7  C20   D T 601       3.669  -1.147   9.749  1.00 17.65     0.034 A 
HETATM    8  C21   D T 601       3.753  -2.277  10.575  1.00 18.53     0.047 A 
HETATM    9  C22   D T 601       2.658  -2.553  11.430  1.00 19.48     0.260 A 
HETATM   10  O23   D T 601       2.775  -3.591  12.114  1.00 21.52    -0.267 OA
HETATM   11  N24   D T 601       1.545  -1.735  11.482  1.00 19.49    -0.301 N 
HETATM   12  C25   D T 601       0.420  -1.982  12.371  1.00 20.07     0.161 C 
ENDROOT
BRANCH   1  13
HETATM   13  N13   D T 601      -0.811   2.043  10.017  1.00 20.14    -0.188 N 
HETATM   14 1H13   D T 601      -0.661   2.914  10.265  1.00 24.16     0.184 HD
BRANCH  13  15
HETATM   15  C12   D T 601      -2.134   1.728   9.799  1.00 24.69     0.049 A 
HETATM   16  C11   D T 601      -2.496   1.378   8.472  1.00 26.89     0.033 A 
HETATM   17  C10   D T 601      -3.827   1.023   8.160  1.00 28.95     0.039 A 
HETATM   18  C09   D T 601      -4.803   0.997   9.180  1.00 30.95     0.069 A 
HETATM   19  C35   D T 601      -4.439   1.317  10.500  1.00 28.80     0.039 A 
HETATM   20  C34   D T 601      -3.122   1.685  10.795  1.00 26.81     0.033 A 
BRANCH  18  21
HETATM   21  O08   D T 601      -6.074   0.618   8.921  1.00 36.09    -0.350 OA
BRANCH  21  22
HETATM   22  C07   D T 601      -6.474  -0.652   9.506  1.00 42.63     0.195 C 
BRANCH  22  23
HETATM   23  C06   D T 601      -5.703  -1.805   8.791  1.00 46.85     0.143 C 
BRANCH  23  24
HETATM   24  N03   D T 601      -5.185  -2.871   9.732  1.00 51.06    -0.411 N 
BRANCH  24  25
HETATM   25  C02   D T 601      -5.318  -4.358   9.415  1.00 53.85     0.112 C 
HETATM   26  C01   D T 601      -4.656  -5.398  10.377  1.00 52.69     0.026 C 
ENDBRANCH  24  25
BRANCH  24  27
HETATM   27  C04   D T 601      -4.415  -2.391  10.932  1.00 47.80     0.112 C 
HETATM   28  C05   D T 601      -2.923  -1.999  10.747  1.00 44.89     0.026 C 
ENDBRANCH  24  27
ENDBRANCH  23  24
ENDBRANCH  22  23
ENDBRANCH  21  22
ENDBRANCH  18  21
ENDBRANCH  13  15
ENDBRANCH   1  13
BRANCH   8  29
HETATM   29  C26   D T 601       4.906  -3.127  10.552  1.00 21.63     0.023 A 
HETATM   30  C27   D T 601       4.942  -4.264   9.699  1.00 22.75     0.046 A 
HETATM   31 CL28   D T 601       3.605  -4.654   8.743  1.00 22.59    -0.083 Cl
HETATM   32  C29   D T 601       6.068  -5.126   9.647  1.00 24.08     0.025 A 
HETATM   33  C30   D T 601       7.210  -4.828  10.426  1.00 25.63     0.003 A 
HETATM   34  C31   D T 601       7.202  -3.698  11.255  1.00 25.41     0.025 A 
HETATM   35  C32   D T 601       6.062  -2.856  11.318  1.00 23.77     0.046 A 
HETATM   36 CL33   D T 601       6.115  -1.511  12.344  1.00 25.94    -0.083 Cl
ENDBRANCH   8  29
TORSDOF 9
ENDMDL
MODEL 7
REMARK VINA RESULT:    -8.263      2.361      3.455
REMARK INTER + INTRA:         -13.610
REMARK INTER:                 -12.307
REMARK INTRA:                  -1.303
REMARK UNBOUND:                -0.999
REMARK  9 active torsions:
REMARK  status: ('A' for Active; 'I' for Inactive)
REMARK    1  A    between atoms: C02_2  and  N03_3 
REMARK    2  A    between atoms: N03_3  and  C04_4 
REMARK    3  A    between atoms: N03_3  and  C06_6 
REMARK    4  A    between atoms: C06_6  and  C07_7 
REMARK    5  A    between atoms: C07_7  and  O08_8 
REMARK    6  A    between atoms: O08_8  and  C09_9 
REMARK    7  A    between atoms: C12_12  and  N13_13 
REMARK    8  A    between atoms: N13_13  and  C14_14 
REMARK    9  A    between atoms: C21_21  and  C26_26 
ROOT
HETATM    1  C14   D T 601      -2.841  -6.713  11.302  1.00 17.92     0.728 A 
HETATM    2  N15   D T 601      -1.649  -7.179  11.725  1.00 19.07    -0.044 NA
HETATM    3  C16   D T 601      -1.494  -8.206  12.571  1.00 18.16     0.163 A 
HETATM    4  C17   D T 601      -2.645  -8.817  13.072  1.00 16.80     0.030 A 
HETATM    5  C18   D T 601      -3.885  -8.312  12.673  1.00 18.08     0.151 A 
HETATM    6  N19   D T 601      -3.950  -7.281  11.805  1.00 16.91    -0.074 NA
HETATM    7  C20   D T 601      -2.528  -9.888  13.980  1.00 17.65     0.034 A 
HETATM    8  C21   D T 601      -1.260 -10.350  14.362  1.00 18.53     0.047 A 
HETATM    9  C22   D T 601      -0.127  -9.690  13.827  1.00 19.48     0.260 A 
HETATM   10  O23   D T 601       0.973 -10.123  14.232  1.00 21.52    -0.267 OA
HETATM   11  N24   D T 601      -0.244  -8.640  12.935  1.00 19.49    -0.301 N 
HETATM   12  C25   D T 601       0.904  -7.964  12.351  1.00 20.07     0.161 C 
ENDROOT
BRANCH   1  13
HETATM   13  N13   D T 601      -2.893  -5.689  10.437  1.00 20.14    -0.188 N 
HETATM   14 1H13   D T 601      -2.337  -5.770   9.712  1.00 24.16     0.184 HD
BRANCH  13  15
HETATM   15  C12   D T 601      -3.646  -4.534  10.457  1.00 24.69     0.049 A 
HETATM   16  C11   D T 601      -3.118  -3.442  11.193  1.00 26.89     0.033 A 
HETATM   17  C10   D T 601      -3.814  -2.214  11.253  1.00 28.95     0.039 A 
HETATM   18  C09   D T 601      -5.035  -2.065  10.561  1.00 30.95     0.069 A 
HETATM   19  C35   D T 601      -5.545  -3.139   9.809  1.00 28.80     0.039 A 
HETATM   20  C34   D T 601      -4.857  -4.357   9.771  1.00 26.81     0.033 A 
BRANCH  18  21
HETATM   21  O08   D T 601      -5.700  -0.889  10.564  1.00 36.09    -0.350 OA
BRANCH  21  22
HETATM   22  C07   D T 601      -5.263   0.069  11.567  1.00 42.63     0.195 C 
BRANCH  22  23
HETATM   23  C06   D T 601      -4.777   1.367  10.851  1.00 46.85     0.143 C 
BRANCH  23  24
HETATM   24  N03   D T 601      -3.696   1.131   9.819  1.00 51.06    -0.411 N 
BRANCH  24  25
HETATM   25  C02   D T 601      -3.974   1.241   8.322  1.00 53.85     0.112 C 
HETATM   26  C01   D T 601      -5.400   1.672   7.847  1.00 52.69     0.026 C 
ENDBRANCH  24  25
BRANCH  24  27
HETATM   27  C04   D T 601      -2.303   0.910  10.343  1.00 47.80     0.112 C 
HETATM   28  C05   D T 601      -1.642   2.035  11.186  1.00 44.89     0.026 C 
ENDBRANCH  24  27
ENDBRANCH  23  24
ENDBRANCH  22  23
ENDBRANCH  21  22
ENDBRANCH  18  21
ENDBRANCH  13  15
ENDBRANCH   1  13
BRANCH   8  29
HETATM   29  C26   D T 601      -1.116 -11.450  15.269  1.00 21.63     0.023 A 
HETATM   30  C27   D T 601      -0.986 -11.217  16.665  1.00 22.75     0.046 A 
HETATM   31 CL28   D T 601      -0.947  -9.638  17.265  1.00 22.59    -0.083 Cl
HETATM   32  C29   D T 601      -0.844 -12.282  17.592  1.00 24.08     0.025 A 
HETATM   33  C30   D T 601      -0.880 -13.617  17.130  1.00 25.63     0.003 A 
HETATM   34  C31   D T 601      -1.032 -13.868  15.759  1.00 25.41     0.025 A 
HETATM   35  C32   D T 601      -1.147 -12.796  14.838  1.00 23.77     0.046 A 
HETATM   36 CL33   D T 601      -1.321 -13.166  13.195  1.00 25.94    -0.083 Cl
ENDBRANCH   8  29
TORSDOF 9
ENDMDL
MODEL 8
REMARK VINA RESULT:    -8.224      4.420     11.264
REMARK INTER + INTRA:         -13.551
REMARK INTER:                 -12.448
REMARK INTRA:                  -1.103
REMARK UNBOUND:                -0.999
REMARK  9 active torsions:
REMARK  status: ('A' for Active; 'I' for Inactive)
REMARK    1  A    between atoms: C02_2  and  N03_3 
REMARK    2  A    between atoms: N03_3  and  C04_4 
REMARK    3  A    between atoms: N03_3  and  C06_6 
REMARK    4  A    between atoms: C06_6  and  C07_7 
REMARK    5  A    between atoms: C07_7  and  O08_8 
REMARK    6  A    between atoms: O08_8  and  C09_9 
REMARK    7  A    between atoms: C12_12  and  N13_13 
REMARK    8  A    between atoms: N13_13  and  C14_14 
REMARK    9  A    between atoms: C21_21  and  C26_26 
ROOT
HETATM    1  C14   D T 601      -2.610  -5.203  10.993  1.00 17.92     0.728 A 
HETATM    2  N15   D T 601      -1.408  -4.673  10.691  1.00 19.07    -0.044 NA
HETATM    3  C16   D T 601      -1.110  -3.370  10.782  1.00 18.16     0.163 A 
HETATM    4  C17   D T 601      -2.121  -2.497  11.190  1.00 16.80     0.030 A 
HETATM    5  C18   D T 601      -3.382  -3.033  11.464  1.00 18.08     0.151 A 
HETATM    6  N19   D T 601      -3.593  -4.362  11.359  1.00 16.91    -0.074 NA
HETATM    7  C20   D T 601      -1.856  -1.116  11.281  1.00 17.65     0.034 A 
HETATM    8  C21   D T 601      -0.576  -0.625  10.982  1.00 18.53     0.047 A 
HETATM    9  C22   D T 601       0.409  -1.555  10.568  1.00 19.48     0.260 A 
HETATM   10  O23   D T 601       1.516  -1.053  10.282  1.00 21.52    -0.267 OA
HETATM   11  N24   D T 601       0.147  -2.909  10.481  1.00 19.49    -0.301 N 
HETATM   12  C25   D T 601       1.149  -3.887  10.086  1.00 20.07     0.161 C 
ENDROOT
BRANCH   1  13
HETATM   13  N13   D T 601      -2.807  -6.525  10.887  1.00 20.14    -0.188 N 
HETATM   14 1H13   D T 601      -3.114  -6.803  10.069  1.00 24.16     0.184 HD
BRANCH  13  15
HETATM   15  C12   D T 601      -2.623  -7.537  11.805  1.00 24.69     0.049 A 
HETATM   16  C11   D T 601      -3.793  -8.171  12.298  1.00 26.89     0.033 A 
HETATM   17  C10   D T 601      -3.698  -9.230  13.228  1.00 28.95     0.039 A 
HETATM   18  C09   D T 601      -2.429  -9.673  13.658  1.00 30.95     0.069 A 
HETATM   19  C35   D T 601      -1.268  -9.063  13.149  1.00 28.80     0.039 A 
HETATM   20  C34   D T 601      -1.374  -8.003  12.242  1.00 26.81     0.033 A 
BRANCH  18  21
HETATM   21  O08   D T 601      -2.305 -10.713  14.512  1.00 36.09    -0.350 OA
BRANCH  21  22
HETATM   22  C07   D T 601      -3.083 -11.893  14.171  1.00 42.63     0.195 C 
BRANCH  22  23
HETATM   23  C06   D T 601      -2.341 -12.682  13.048  1.00 46.85     0.143 C 
BRANCH  23  24
HETATM   24  N03   D T 601      -3.218 -13.671  12.311  1.00 51.06    -0.411 N 
BRANCH  24  25
HETATM   25  C02   D T 601      -2.629 -14.806  11.478  1.00 53.85     0.112 C 
HETATM   26  C01   D T 601      -2.005 -14.474  10.083  1.00 52.69     0.026 C 
ENDBRANCH  24  25
BRANCH  24  27
HETATM   27  C04   D T 601      -4.700 -13.559  12.547  1.00 47.80     0.112 C 
HETATM   28  C05   D T 601      -5.646 -14.535  11.794  1.00 44.89     0.026 C 
ENDBRANCH  24  27
ENDBRANCH  23  24
ENDBRANCH  22  23
ENDBRANCH  21  22
ENDBRANCH  18  21
ENDBRANCH  13  15
ENDBRANCH   1  13
BRANCH   8  29
HETATM   29  C26   D T 601      -0.278   0.772  11.085  1.00 21.63     0.023 A 
HETATM   30  C27   D T 601       0.393   1.280  12.232  1.00 22.75     0.046 A 
HETATM   31 CL28   D T 601       0.798   0.249  13.507  1.00 22.59    -0.083 Cl
HETATM   32  C29   D T 601       0.707   2.657  12.367  1.00 24.08     0.025 A 
HETATM   33  C30   D T 601       0.392   3.550  11.318  1.00 25.63     0.003 A 
HETATM   34  C31   D T 601      -0.247   3.064  10.169  1.00 25.41     0.025 A 
HETATM   35  C32   D T 601      -0.580   1.690  10.054  1.00 23.77     0.046 A 
HETATM   36 CL33   D T 601      -1.358   1.169   8.644  1.00 25.94    -0.083 Cl
ENDBRANCH   8  29
TORSDOF 9
ENDMDL
MODEL 9
REMARK VINA RESULT:    -8.157      5.841      8.035
REMARK INTER + INTRA:         -13.448
REMARK INTER:                 -12.176
REMARK INTRA:                  -1.272
REMARK UNBOUND:                -0.999
REMARK  9 active torsions:
REMARK  status: ('A' for Active; 'I' for Inactive)
REMARK    1  A    between atoms: C02_2  and  N03_3 
REMARK    2  A    between atoms: N03_3  and  C04_4 
REMARK    3  A    between atoms: N03_3  and  C06_6 
REMARK    4  A    between atoms: C06_6  and  C07_7 
REMARK    5  A    between atoms: C07_7  and  O08_8 
REMARK    6  A    between atoms: O08_8  and  C09_9 
REMARK    7  A    between atoms: C12_12  and  N13_13 
REMARK    8  A    between atoms: N13_13  and  C14_14 
REMARK    9  A    between atoms: C21_21  and  C26_26 
ROOT
HETATM    1  C14   D T 601       0.468  -4.181  11.729  1.00 17.92     0.728 A 
HETATM    2  N15   D T 601       0.738  -2.887  11.992  1.00 19.07    -0.044 NA
HETATM    3  C16   D T 601       1.847  -2.248  11.597  1.00 18.16     0.163 A 
HETATM    4  C17   D T 601       2.803  -2.981  10.890  1.00 16.80     0.030 A 
HETATM    5  C18   D T 601       2.552  -4.334  10.651  1.00 18.08     0.151 A 
HETATM    6  N19   D T 601       1.399  -4.895  11.073  1.00 16.91    -0.074 NA
HETATM    7  C20   D T 601       3.994  -2.353  10.473  1.00 17.65     0.034 A 
HETATM    8  C21   D T 601       4.208  -0.994  10.750  1.00 18.53     0.047 A 
HETATM    9  C22   D T 601       3.206  -0.303  11.474  1.00 19.48     0.260 A 
HETATM   10  O23   D T 601       3.469   0.893  11.721  1.00 21.52    -0.267 OA
HETATM   11  N24   D T 601       2.038  -0.919  11.882  1.00 19.49    -0.301 N 
HETATM   12  C25   D T 601       0.984  -0.224  12.602  1.00 20.07     0.161 C 
ENDROOT
BRANCH   1  13
HETATM   13  N13   D T 601      -0.682  -4.727  12.152  1.00 20.14    -0.188 N 
HETATM   14 1H13   D T 601      -0.611  -5.220  12.922  1.00 24.16     0.184 HD
BRANCH  13  15
HETATM   15  C12   D T 601      -1.952  -4.670  11.620  1.00 24.69     0.049 A 
HETATM   16  C11   D T 601      -2.655  -3.447  11.781  1.00 26.89     0.033 A 
HETATM   17  C10   D T 601      -3.956  -3.293  11.252  1.00 28.95     0.039 A 
HETATM   18  C09   D T 601      -4.555  -4.356  10.543  1.00 30.95     0.069 A 
HETATM   19  C35   D T 601      -3.848  -5.558  10.360  1.00 28.80     0.039 A 
HETATM   20  C34   D T 601      -2.567  -5.707  10.903  1.00 26.81     0.033 A 
BRANCH  18  21
HETATM   21  O08   D T 601      -5.780  -4.222   9.988  1.00 36.09    -0.350 OA
BRANCH  21  22
HETATM   22  C07   D T 601      -5.871  -3.246   8.914  1.00 42.63     0.195 C 
BRANCH  22  23
HETATM   23  C06   D T 601      -6.815  -2.087   9.360  1.00 46.85     0.143 C 
BRANCH  23  24
HETATM   24  N03   D T 601      -6.092  -0.803   9.703  1.00 51.06    -0.411 N 
BRANCH  24  25
HETATM   25  C02   D T 601      -6.034  -0.269  11.131  1.00 53.85     0.112 C 
HETATM   26  C01   D T 601      -4.826   0.630  11.554  1.00 52.69     0.026 C 
ENDBRANCH  24  25
BRANCH  24  27
HETATM   27  C04   D T 601      -5.322  -0.148   8.589  1.00 47.80     0.112 C 
HETATM   28  C05   D T 601      -5.694   1.306   8.185  1.00 44.89     0.026 C 
ENDBRANCH  24  27
ENDBRANCH  23  24
ENDBRANCH  22  23
ENDBRANCH  21  22
ENDBRANCH  18  21
ENDBRANCH  13  15
ENDBRANCH   1  13
BRANCH   8  29
HETATM   29  C26   D T 601       5.401  -0.331  10.319  1.00 21.63     0.023 A 
HETATM   30  C27   D T 601       6.558  -0.324  11.146  1.00 22.75     0.046 A 
HETATM   31 CL28   D T 601       6.519  -1.055  12.669  1.00 22.59    -0.083 Cl
HETATM   32  C29   D T 601       7.758   0.321  10.750  1.00 24.08     0.025 A 
HETATM   33  C30   D T 601       7.833   0.936   9.480  1.00 25.63     0.003 A 
HETATM   34  C31   D T 601       6.710   0.919   8.640  1.00 25.41     0.025 A 
HETATM   35  C32   D T 601       5.507   0.293   9.055  1.00 23.77     0.046 A 
HETATM   36 CL33   D T 601       4.186   0.315   7.997  1.00 25.94    -0.083 Cl
ENDBRANCH   8  29
TORSDOF 9
ENDMDL
