MODEL 1
REMARK VINA RESULT:    -7.466      0.000      0.000
REMARK INTER + INTRA:         -12.832
REMARK INTER:                 -11.395
REMARK INTRA:                  -1.437
REMARK UNBOUND:                -1.437
REMARK  9 active torsions:
REMARK  status: ('A' for Active; 'I' for Inactive)
REMARK    1  A    between atoms: C02_2  and  N03_3 
REMARK    2  A    between atoms: N03_3  and  C04_4 
REMARK    3  A    between atoms: N03_3  and  C06_6 
REMARK    4  A    between atoms: C06_6  and  C07_7 
REMARK    5  A    between atoms: C07_7  and  O08_8 
REMARK    6  A    between atoms: O08_8  and  C09_9 
REMARK    7  A    between atoms: C12_12  and  N13_13 
REMARK    8  A    between atoms: N13_13  and  C14_14 
REMARK    9  A    between atoms: C21_21  and  C26_26 
ROOT
HETATM    1  C14   D T 601     -11.358  18.041 -19.134  1.00 17.92     0.728 A 
HETATM    2  N15   D T 601     -11.585  16.739 -19.400  1.00 19.07    -0.044 NA
HETATM    3  C16   D T 601     -11.018  16.062 -20.407  1.00 18.16     0.163 A 
HETATM    4  C17   D T 601     -10.155  16.758 -21.257  1.00 16.80     0.030 A 
HETATM    5  C18   D T 601      -9.948  18.118 -21.013  1.00 18.08     0.151 A 
HETATM    6  N19   D T 601     -10.551  18.720 -19.967  1.00 16.91    -0.074 NA
HETATM    7  C20   D T 601      -9.552  16.090 -22.340  1.00 17.65     0.034 A 
HETATM    8  C21   D T 601      -9.802  14.725 -22.552  1.00 18.53     0.047 A 
HETATM    9  C22   D T 601     -10.689  14.071 -21.662  1.00 19.48     0.260 A 
HETATM   10  O23   D T 601     -10.900  12.867 -21.922  1.00 21.52    -0.267 OA
HETATM   11  N24   D T 601     -11.278  14.728 -20.599  1.00 19.49    -0.301 N 
HETATM   12  C25   D T 601     -12.170  14.072 -19.655  1.00 20.07     0.161 C 
ENDROOT
BRANCH   1  13
HETATM   13  N13   D T 601     -11.961  18.628 -18.089  1.00 20.14    -0.188 N 
HETATM   14 1H13   D T 601     -12.203  19.502 -18.228  1.00 24.16     0.184 HD
BRANCH  13  15
HETATM   15  C12   D T 601     -12.277  18.134 -16.842  1.00 24.69     0.049 A 
HETATM   16  C11   D T 601     -11.268  18.225 -15.847  1.00 26.89     0.033 A 
HETATM   17  C10   D T 601     -11.511  17.762 -14.535  1.00 28.95     0.039 A 
HETATM   18  C09   D T 601     -12.773  17.221 -14.205  1.00 30.95     0.069 A 
HETATM   19  C35   D T 601     -13.781  17.155 -15.183  1.00 28.80     0.039 A 
HETATM   20  C34   D T 601     -13.525  17.601 -16.484  1.00 26.81     0.033 A 
BRANCH  18  21
HETATM   21  O08   D T 601     -13.049  16.811 -12.946  1.00 36.09    -0.350 OA
BRANCH  21  22
HETATM   22  C07   D T 601     -13.302  17.876 -11.990  1.00 42.63     0.195 C 
BRANCH  22  23
HETATM   23  C06   D T 601     -14.699  17.647 -11.332  1.00 46.85     0.143 C 
BRANCH  23  24
HETATM   24  N03   D T 601     -15.854  17.730 -12.303  1.00 51.06    -0.411 N 
BRANCH  24  25
HETATM   25  C02   D T 601     -16.795  16.552 -12.539  1.00 53.85     0.112 C 
HETATM   26  C01   D T 601     -16.234  15.258 -13.215  1.00 52.69     0.026 C 
ENDBRANCH  24  25
BRANCH  24  27
HETATM   27  C04   D T 601     -16.112  19.075 -12.929  1.00 47.80     0.112 C 
HETATM   28  C05   D T 601     -16.841  19.126 -14.300  1.00 44.89     0.026 C 
ENDBRANCH  24  27
ENDBRANCH  23  24
ENDBRANCH  22  23
ENDBRANCH  21  22
ENDBRANCH  18  21
ENDBRANCH  13  15
ENDBRANCH   1  13
BRANCH   8  29
HETATM   29  C26   D T 601      -9.186  14.019 -23.635  1.00 21.63     0.023 A 
HETATM   30  C27   D T 601      -9.920  13.749 -24.824  1.00 22.75     0.046 A 
HETATM   31 CL28   D T 601     -11.539  14.212 -24.950  1.00 22.59    -0.083 Cl
HETATM   32  C29   D T 601      -9.340  13.055 -25.918  1.00 24.08     0.025 A 
HETATM   33  C30   D T 601      -7.986  12.658 -25.854  1.00 25.63     0.003 A 
HETATM   34  C31   D T 601      -7.241  12.936 -24.699  1.00 25.41     0.025 A 
HETATM   35  C32   D T 601      -7.833  13.609 -23.601  1.00 23.77     0.046 A 
HETATM   36 CL33   D T 601      -6.882  13.909 -22.235  1.00 25.94    -0.083 Cl
ENDBRANCH   8  29
TORSDOF 9
ENDMDL
MODEL 2
REMARK VINA RESULT:    -7.438      2.174      3.601
REMARK INTER + INTRA:         -12.788
REMARK INTER:                 -11.411
REMARK INTRA:                  -1.377
REMARK UNBOUND:                -1.437
REMARK  9 active torsions:
REMARK  status: ('A' for Active; 'I' for Inactive)
REMARK    1  A    between atoms: C02_2  and  N03_3 
REMARK    2  A    between atoms: N03_3  and  C04_4 
REMARK    3  A    between atoms: N03_3  and  C06_6 
REMARK    4  A    between atoms: C06_6  and  C07_7 
REMARK    5  A    between atoms: C07_7  and  O08_8 
REMARK    6  A    between atoms: O08_8  and  C09_9 
REMARK    7  A    between atoms: C12_12  and  N13_13 
REMARK    8  A    between atoms: N13_13  and  C14_14 
REMARK    9  A    between atoms: C21_21  and  C26_26 
ROOT
HETATM    1  C14   D T 601     -14.040  15.568 -18.341  1.00 17.92     0.728 A 
HETATM    2  N15   D T 601     -13.003  16.369 -18.654  1.00 19.07    -0.044 NA
HETATM    3  C16   D T 601     -11.970  16.003 -19.426  1.00 18.16     0.163 A 
HETATM    4  C17   D T 601     -11.953  14.695 -19.915  1.00 16.80     0.030 A 
HETATM    5  C18   D T 601     -13.004  13.846 -19.558  1.00 18.08     0.151 A 
HETATM    6  N19   D T 601     -14.012  14.300 -18.786  1.00 16.91    -0.074 NA
HETATM    7  C20   D T 601     -10.876  14.263 -20.714  1.00 17.65     0.034 A 
HETATM    8  C21   D T 601      -9.836  15.150 -21.033  1.00 18.53     0.047 A 
HETATM    9  C22   D T 601      -9.903  16.463 -20.505  1.00 19.48     0.260 A 
HETATM   10  O23   D T 601      -8.933  17.194 -20.794  1.00 21.52    -0.267 OA
HETATM   11  N24   D T 601     -10.961  16.885 -19.723  1.00 19.49    -0.301 N 
HETATM   12  C25   D T 601     -11.067  18.236 -19.194  1.00 20.07     0.161 C 
ENDROOT
BRANCH   1  13
HETATM   13  N13   D T 601     -15.039  16.032 -17.574  1.00 20.14    -0.188 N 
HETATM   14 1H13   D T 601     -15.844  16.123 -18.006  1.00 24.16     0.184 HD
BRANCH  13  15
HETATM   15  C12   D T 601     -15.055  16.397 -16.245  1.00 24.69     0.049 A 
HETATM   16  C11   D T 601     -14.634  15.415 -15.310  1.00 26.89     0.033 A 
HETATM   17  C10   D T 601     -14.600  15.708 -13.929  1.00 28.95     0.039 A 
HETATM   18  C09   D T 601     -14.969  16.993 -13.475  1.00 30.95     0.069 A 
HETATM   19  C35   D T 601     -15.360  17.974 -14.403  1.00 28.80     0.039 A 
HETATM   20  C34   D T 601     -15.408  17.669 -15.768  1.00 26.81     0.033 A 
BRANCH  18  21
HETATM   21  O08   D T 601     -14.904  17.316 -12.164  1.00 36.09    -0.350 OA
BRANCH  21  22
HETATM   22  C07   D T 601     -14.256  18.584 -11.871  1.00 42.63     0.195 C 
BRANCH  22  23
HETATM   23  C06   D T 601     -12.769  18.316 -11.479  1.00 46.85     0.143 C 
BRANCH  23  24
HETATM   24  N03   D T 601     -11.770  18.747 -12.528  1.00 51.06    -0.411 N 
BRANCH  24  25
HETATM   25  C02   D T 601     -11.723  18.103 -13.910  1.00 53.85     0.112 C 
HETATM   26  C01   D T 601     -10.487  18.374 -14.830  1.00 52.69     0.026 C 
ENDBRANCH  24  25
BRANCH  24  27
HETATM   27  C04   D T 601     -10.910  19.935 -12.189  1.00 47.80     0.112 C 
HETATM   28  C05   D T 601     -11.440  20.961 -11.148  1.00 44.89     0.026 C 
ENDBRANCH  24  27
ENDBRANCH  23  24
ENDBRANCH  22  23
ENDBRANCH  21  22
ENDBRANCH  18  21
ENDBRANCH  13  15
ENDBRANCH   1  13
BRANCH   8  29
HETATM   29  C26   D T 601      -8.741  14.739 -21.858  1.00 21.63     0.023 A 
HETATM   30  C27   D T 601      -8.866  14.755 -23.276  1.00 22.75     0.046 A 
HETATM   31 CL28   D T 601     -10.324  15.208 -23.998  1.00 22.59    -0.083 Cl
HETATM   32  C29   D T 601      -7.800  14.359 -24.125  1.00 24.08     0.025 A 
HETATM   33  C30   D T 601      -6.562  13.980 -23.559  1.00 25.63     0.003 A 
HETATM   34  C31   D T 601      -6.413  13.981 -22.165  1.00 25.41     0.025 A 
HETATM   35  C32   D T 601      -7.490  14.356 -21.323  1.00 23.77     0.046 A 
HETATM   36 CL33   D T 601      -7.247  14.329 -19.649  1.00 25.94    -0.083 Cl
ENDBRANCH   8  29
TORSDOF 9
ENDMDL
MODEL 3
REMARK VINA RESULT:    -7.291      1.468      2.612
REMARK INTER + INTRA:         -12.564
REMARK INTER:                 -10.952
REMARK INTRA:                  -1.612
REMARK UNBOUND:                -1.437
REMARK  9 active torsions:
REMARK  status: ('A' for Active; 'I' for Inactive)
REMARK    1  A    between atoms: C02_2  and  N03_3 
REMARK    2  A    between atoms: N03_3  and  C04_4 
REMARK    3  A    between atoms: N03_3  and  C06_6 
REMARK    4  A    between atoms: C06_6  and  C07_7 
REMARK    5  A    between atoms: C07_7  and  O08_8 
REMARK    6  A    between atoms: O08_8  and  C09_9 
REMARK    7  A    between atoms: C12_12  and  N13_13 
REMARK    8  A    between atoms: N13_13  and  C14_14 
REMARK    9  A    between atoms: C21_21  and  C26_26 
ROOT
HETATM    1  C14   D T 601     -12.701  17.466 -18.516  1.00 17.92     0.728 A 
HETATM    2  N15   D T 601     -12.641  16.252 -19.099  1.00 19.07    -0.044 NA
HETATM    3  C16   D T 601     -11.648  15.846 -19.901  1.00 18.16     0.163 A 
HETATM    4  C17   D T 601     -10.620  16.751 -20.175  1.00 16.80     0.030 A 
HETATM    5  C18   D T 601     -10.698  18.025 -19.609  1.00 18.08     0.151 A 
HETATM    6  N19   D T 601     -11.729  18.348 -18.801  1.00 16.91    -0.074 NA
HETATM    7  C20   D T 601      -9.566  16.371 -21.029  1.00 17.65     0.034 A 
HETATM    8  C21   D T 601      -9.540  15.083 -21.585  1.00 18.53     0.047 A 
HETATM    9  C22   D T 601     -10.611  14.209 -21.277  1.00 19.48     0.260 A 
HETATM   10  O23   D T 601     -10.550  13.090 -21.828  1.00 21.52    -0.267 OA
HETATM   11  N24   D T 601     -11.643  14.582 -20.437  1.00 19.49    -0.301 N 
HETATM   12  C25   D T 601     -12.739  13.694 -20.082  1.00 20.07     0.161 C 
ENDROOT
BRANCH   1  13
HETATM   13  N13   D T 601     -13.731  17.774 -17.712  1.00 20.14    -0.188 N 
HETATM   14 1H13   D T 601     -14.145  18.570 -17.908  1.00 24.16     0.184 HD
BRANCH  13  15
HETATM   15  C12   D T 601     -14.268  17.094 -16.641  1.00 24.69     0.049 A 
HETATM   16  C11   D T 601     -13.588  17.219 -15.401  1.00 26.89     0.033 A 
HETATM   17  C10   D T 601     -14.078  16.573 -14.246  1.00 28.95     0.039 A 
HETATM   18  C09   D T 601     -15.265  15.810 -14.319  1.00 30.95     0.069 A 
HETATM   19  C35   D T 601     -15.953  15.708 -15.540  1.00 28.80     0.039 A 
HETATM   20  C34   D T 601     -15.450  16.338 -16.684  1.00 26.81     0.033 A 
BRANCH  18  21
HETATM   21  O08   D T 601     -15.782  15.217 -13.220  1.00 36.09    -0.350 OA
BRANCH  21  22
HETATM   22  C07   D T 601     -16.932  15.889 -12.637  1.00 42.63     0.195 C 
BRANCH  22  23
HETATM   23  C06   D T 601     -16.443  16.829 -11.491  1.00 46.85     0.143 C 
BRANCH  23  24
HETATM   24  N03   D T 601     -16.463  18.297 -11.851  1.00 51.06    -0.411 N 
BRANCH  24  25
HETATM   25  C02   D T 601     -15.539  19.306 -11.175  1.00 53.85     0.112 C 
HETATM   26  C01   D T 601     -13.991  19.137 -11.330  1.00 52.69     0.026 C 
ENDBRANCH  24  25
BRANCH  24  27
HETATM   27  C04   D T 601     -17.346  18.694 -13.003  1.00 47.80     0.112 C 
HETATM   28  C05   D T 601     -16.680  19.272 -14.283  1.00 44.89     0.026 C 
ENDBRANCH  24  27
ENDBRANCH  23  24
ENDBRANCH  22  23
ENDBRANCH  21  22
ENDBRANCH  18  21
ENDBRANCH  13  15
ENDBRANCH   1  13
BRANCH   8  29
HETATM   29  C26   D T 601      -8.469  14.668 -22.441  1.00 21.63     0.023 A 
HETATM   30  C27   D T 601      -7.221  14.270 -21.886  1.00 22.75     0.046 A 
HETATM   31 CL28   D T 601      -6.971  14.332 -20.217  1.00 22.59    -0.083 Cl
HETATM   32  C29   D T 601      -6.139  13.849 -22.704  1.00 24.08     0.025 A 
HETATM   33  C30   D T 601      -6.311  13.777 -24.104  1.00 25.63     0.003 A 
HETATM   34  C31   D T 601      -7.542  14.143 -24.667  1.00 25.41     0.025 A 
HETATM   35  C32   D T 601      -8.610  14.584 -23.845  1.00 23.77     0.046 A 
HETATM   36 CL33   D T 601     -10.068  15.018 -24.586  1.00 25.94    -0.083 Cl
ENDBRANCH   8  29
TORSDOF 9
ENDMDL
MODEL 4
REMARK VINA RESULT:    -7.112      2.176      3.820
REMARK INTER + INTRA:         -12.290
REMARK INTER:                 -10.567
REMARK INTRA:                  -1.723
REMARK UNBOUND:                -1.437
REMARK  9 active torsions:
REMARK  status: ('A' for Active; 'I' for Inactive)
REMARK    1  A    between atoms: C02_2  and  N03_3 
REMARK    2  A    between atoms: N03_3  and  C04_4 
REMARK    3  A    between atoms: N03_3  and  C06_6 
REMARK    4  A    between atoms: C06_6  and  C07_7 
REMARK    5  A    between atoms: C07_7  and  O08_8 
REMARK    6  A    between atoms: O08_8  and  C09_9 
REMARK    7  A    between atoms: C12_12  and  N13_13 
REMARK    8  A    between atoms: N13_13  and  C14_14 
REMARK    9  A    between atoms: C21_21  and  C26_26 
ROOT
HETATM    1  C14   D T 601     -13.699  15.260 -18.854  1.00 17.92     0.728 A 
HETATM    2  N15   D T 601     -12.683  16.106 -19.115  1.00 19.07    -0.044 NA
HETATM    3  C16   D T 601     -11.574  15.772 -19.789  1.00 18.16     0.163 A 
HETATM    4  C17   D T 601     -11.450  14.450 -20.226  1.00 16.80     0.030 A 
HETATM    5  C18   D T 601     -12.480  13.558 -19.921  1.00 18.08     0.151 A 
HETATM    6  N19   D T 601     -13.569  13.981 -19.247  1.00 16.91    -0.074 NA
HETATM    7  C20   D T 601     -10.292  14.051 -20.921  1.00 17.65     0.034 A 
HETATM    8  C21   D T 601      -9.277  14.983 -21.192  1.00 18.53     0.047 A 
HETATM    9  C22   D T 601      -9.454  16.307 -20.721  1.00 19.48     0.260 A 
HETATM   10  O23   D T 601      -8.503  17.081 -20.961  1.00 21.52    -0.267 OA
HETATM   11  N24   D T 601     -10.592  16.697 -20.040  1.00 19.49    -0.301 N 
HETATM   12  C25   D T 601     -10.810  18.057 -19.572  1.00 20.07     0.161 C 
ENDROOT
BRANCH   1  13
HETATM   13  N13   D T 601     -14.778  15.694 -18.185  1.00 20.14    -0.188 N 
HETATM   14 1H13   D T 601     -15.323  16.258 -18.663  1.00 24.16     0.184 HD
BRANCH  13  15
HETATM   15  C12   D T 601     -15.203  15.435 -16.900  1.00 24.69     0.049 A 
HETATM   16  C11   D T 601     -16.569  15.086 -16.739  1.00 26.89     0.033 A 
HETATM   17  C10   D T 601     -17.086  14.785 -15.459  1.00 28.95     0.039 A 
HETATM   18  C09   D T 601     -16.234  14.813 -14.334  1.00 30.95     0.069 A 
HETATM   19  C35   D T 601     -14.875  15.132 -14.497  1.00 28.80     0.039 A 
HETATM   20  C34   D T 601     -14.376  15.446 -15.766  1.00 26.81     0.033 A 
BRANCH  18  21
HETATM   21  O08   D T 601     -16.690  14.485 -13.104  1.00 36.09    -0.350 OA
BRANCH  21  22
HETATM   22  C07   D T 601     -17.586  15.456 -12.498  1.00 42.63     0.195 C 
BRANCH  22  23
HETATM   23  C06   D T 601     -16.778  16.332 -11.489  1.00 46.85     0.143 C 
BRANCH  23  24
HETATM   24  N03   D T 601     -16.206  17.594 -12.094  1.00 51.06    -0.411 N 
BRANCH  24  25
HETATM   25  C02   D T 601     -16.959  18.394 -13.153  1.00 53.85     0.112 C 
HETATM   26  C01   D T 601     -16.329  18.546 -14.577  1.00 52.69     0.026 C 
ENDBRANCH  24  25
BRANCH  24  27
HETATM   27  C04   D T 601     -14.915  18.096 -11.505  1.00 47.80     0.112 C 
HETATM   28  C05   D T 601     -13.592  17.813 -12.270  1.00 44.89     0.026 C 
ENDBRANCH  24  27
ENDBRANCH  23  24
ENDBRANCH  22  23
ENDBRANCH  21  22
ENDBRANCH  18  21
ENDBRANCH  13  15
ENDBRANCH   1  13
BRANCH   8  29
HETATM   29  C26   D T 601      -8.099  14.605 -21.913  1.00 21.63     0.023 A 
HETATM   30  C27   D T 601      -6.914  14.245 -21.213  1.00 22.75     0.046 A 
HETATM   31 CL28   D T 601      -6.868  14.310 -19.526  1.00 22.59    -0.083 Cl
HETATM   32  C29   D T 601      -5.729  13.863 -21.895  1.00 24.08     0.025 A 
HETATM   33  C30   D T 601      -5.730  13.791 -23.306  1.00 25.63     0.003 A 
HETATM   34  C31   D T 601      -6.897  14.118 -24.012  1.00 25.41     0.025 A 
HETATM   35  C32   D T 601      -8.068  14.522 -23.324  1.00 23.77     0.046 A 
HETATM   36 CL33   D T 601      -9.440  14.911 -24.234  1.00 25.94    -0.083 Cl
ENDBRANCH   8  29
TORSDOF 9
ENDMDL
MODEL 5
REMARK VINA RESULT:    -7.078      5.049      9.623
REMARK INTER + INTRA:         -12.239
REMARK INTER:                 -11.426
REMARK INTRA:                  -0.813
REMARK UNBOUND:                -1.437
REMARK  9 active torsions:
REMARK  status: ('A' for Active; 'I' for Inactive)
REMARK    1  A    between atoms: C02_2  and  N03_3 
REMARK    2  A    between atoms: N03_3  and  C04_4 
REMARK    3  A    between atoms: N03_3  and  C06_6 
REMARK    4  A    between atoms: C06_6  and  C07_7 
REMARK    5  A    between atoms: C07_7  and  O08_8 
REMARK    6  A    between atoms: O08_8  and  C09_9 
REMARK    7  A    between atoms: C12_12  and  N13_13 
REMARK    8  A    between atoms: N13_13  and  C14_14 
REMARK    9  A    between atoms: C21_21  and  C26_26 
ROOT
HETATM    1  C14   D T 601     -10.546  14.448 -24.405  1.00 17.92     0.728 A 
HETATM    2  N15   D T 601     -10.725  15.017 -23.195  1.00 19.07    -0.044 NA
HETATM    3  C16   D T 601     -11.879  15.000 -22.515  1.00 18.16     0.163 A 
HETATM    4  C17   D T 601     -12.979  14.378 -23.111  1.00 16.80     0.030 A 
HETATM    5  C18   D T 601     -12.811  13.824 -24.383  1.00 18.08     0.151 A 
HETATM    6  N19   D T 601     -11.609  13.874 -24.992  1.00 16.91    -0.074 NA
HETATM    7  C20   D T 601     -14.217  14.355 -22.440  1.00 17.65     0.034 A 
HETATM    8  C21   D T 601     -14.339  14.938 -21.169  1.00 18.53     0.047 A 
HETATM    9  C22   D T 601     -13.192  15.559 -20.615  1.00 19.48     0.260 A 
HETATM   10  O23   D T 601     -13.371  16.090 -19.499  1.00 21.52    -0.267 OA
HETATM   11  N24   D T 601     -11.978  15.579 -21.275  1.00 19.49    -0.301 N 
HETATM   12  C25   D T 601     -10.780  16.186 -20.715  1.00 20.07     0.161 C 
ENDROOT
BRANCH   1  13
HETATM   13  N13   D T 601      -9.344  14.502 -25.000  1.00 20.14    -0.188 N 
HETATM   14 1H13   D T 601      -9.368  14.714 -25.893  1.00 24.16     0.184 HD
BRANCH  13  15
HETATM   15  C12   D T 601      -8.081  14.291 -24.492  1.00 24.69     0.049 A 
HETATM   16  C11   D T 601      -7.957  14.277 -23.077  1.00 26.89     0.033 A 
HETATM   17  C10   D T 601      -6.703  14.048 -22.470  1.00 28.95     0.039 A 
HETATM   18  C09   D T 601      -5.566  13.813 -23.274  1.00 30.95     0.069 A 
HETATM   19  C35   D T 601      -5.694  13.799 -24.673  1.00 28.80     0.039 A 
HETATM   20  C34   D T 601      -6.937  14.044 -25.267  1.00 26.81     0.033 A 
BRANCH  18  21
HETATM   21  O08   D T 601      -4.362  13.546 -22.719  1.00 36.09    -0.350 OA
BRANCH  21  22
HETATM   22  C07   D T 601      -4.315  13.636 -21.269  1.00 42.63     0.195 C 
BRANCH  22  23
HETATM   23  C06   D T 601      -3.790  15.050 -20.866  1.00 46.85     0.143 C 
BRANCH  23  24
HETATM   24  N03   D T 601      -4.143  15.454 -19.453  1.00 51.06    -0.411 N 
BRANCH  24  25
HETATM   25  C02   D T 601      -3.489  16.652 -18.769  1.00 53.85     0.112 C 
HETATM   26  C01   D T 601      -3.713  16.864 -17.236  1.00 52.69     0.026 C 
ENDBRANCH  24  25
BRANCH  24  27
HETATM   27  C04   D T 601      -5.267  14.697 -18.797  1.00 47.80     0.112 C 
HETATM   28  C05   D T 601      -6.721  15.208 -18.997  1.00 44.89     0.026 C 
ENDBRANCH  24  27
ENDBRANCH  23  24
ENDBRANCH  22  23
ENDBRANCH  21  22
ENDBRANCH  18  21
ENDBRANCH  13  15
ENDBRANCH   1  13
BRANCH   8  29
HETATM   29  C26   D T 601     -15.581  14.910 -20.458  1.00 21.63     0.023 A 
HETATM   30  C27   D T 601     -16.549  15.933 -20.667  1.00 22.75     0.046 A 
HETATM   31 CL28   D T 601     -16.221  17.215 -21.715  1.00 22.59    -0.083 Cl
HETATM   32  C29   D T 601     -17.793  15.936 -19.983  1.00 24.08     0.025 A 
HETATM   33  C30   D T 601     -18.107  14.876 -19.103  1.00 25.63     0.003 A 
HETATM   34  C31   D T 601     -17.175  13.847 -18.903  1.00 25.41     0.025 A 
HETATM   35  C32   D T 601     -15.926  13.864 -19.572  1.00 23.77     0.046 A 
HETATM   36 CL33   D T 601     -14.843  12.597 -19.282  1.00 25.94    -0.083 Cl
ENDBRANCH   8  29
TORSDOF 9
ENDMDL
MODEL 6
REMARK VINA RESULT:    -7.059      2.620      4.200
REMARK INTER + INTRA:         -12.210
REMARK INTER:                 -10.891
REMARK INTRA:                  -1.319
REMARK UNBOUND:                -1.437
REMARK  9 active torsions:
REMARK  status: ('A' for Active; 'I' for Inactive)
REMARK    1  A    between atoms: C02_2  and  N03_3 
REMARK    2  A    between atoms: N03_3  and  C04_4 
REMARK    3  A    between atoms: N03_3  and  C06_6 
REMARK    4  A    between atoms: C06_6  and  C07_7 
REMARK    5  A    between atoms: C07_7  and  O08_8 
REMARK    6  A    between atoms: O08_8  and  C09_9 
REMARK    7  A    between atoms: C12_12  and  N13_13 
REMARK    8  A    between atoms: N13_13  and  C14_14 
REMARK    9  A    between atoms: C21_21  and  C26_26 
ROOT
HETATM    1  C14   D T 601     -12.760  15.268 -19.563  1.00 17.92     0.728 A 
HETATM    2  N15   D T 601     -11.759  16.103 -19.906  1.00 19.07    -0.044 NA
HETATM    3  C16   D T 601     -10.509  15.710 -20.186  1.00 18.16     0.163 A 
HETATM    4  C17   D T 601     -10.216  14.348 -20.088  1.00 16.80     0.030 A 
HETATM    5  C18   D T 601     -11.239  13.483 -19.691  1.00 18.08     0.151 A 
HETATM    6  N19   D T 601     -12.474  13.961 -19.440  1.00 16.91    -0.074 NA
HETATM    7  C20   D T 601      -8.909  13.894 -20.354  1.00 17.65     0.034 A 
HETATM    8  C21   D T 601      -7.912  14.805 -20.737  1.00 18.53     0.047 A 
HETATM    9  C22   D T 601      -8.264  16.175 -20.815  1.00 19.48     0.260 A 
HETATM   10  O23   D T 601      -7.328  16.940 -21.125  1.00 21.52    -0.267 OA
HETATM   11  N24   D T 601      -9.547  16.618 -20.554  1.00 19.49    -0.301 N 
HETATM   12  C25   D T 601      -9.941  18.015 -20.656  1.00 20.07     0.161 C 
ENDROOT
BRANCH   1  13
HETATM   13  N13   D T 601     -13.986  15.757 -19.318  1.00 20.14    -0.188 N 
HETATM   14 1H13   D T 601     -14.489  15.922 -20.068  1.00 24.16     0.184 HD
BRANCH  13  15
HETATM   15  C12   D T 601     -14.613  16.053 -18.128  1.00 24.69     0.049 A 
HETATM   16  C11   D T 601     -14.045  17.096 -17.350  1.00 26.89     0.033 A 
HETATM   17  C10   D T 601     -14.633  17.479 -16.125  1.00 28.95     0.039 A 
HETATM   18  C09   D T 601     -15.806  16.833 -15.677  1.00 30.95     0.069 A 
HETATM   19  C35   D T 601     -16.384  15.818 -16.460  1.00 28.80     0.039 A 
HETATM   20  C34   D T 601     -15.784  15.433 -17.664  1.00 26.81     0.033 A 
BRANCH  18  21
HETATM   21  O08   D T 601     -16.416  17.209 -14.531  1.00 36.09    -0.350 OA
BRANCH  21  22
HETATM   22  C07   D T 601     -15.677  18.162 -13.720  1.00 42.63     0.195 C 
BRANCH  22  23
HETATM   23  C06   D T 601     -14.913  17.390 -12.599  1.00 46.85     0.143 C 
BRANCH  23  24
HETATM   24  N03   D T 601     -13.498  17.871 -12.378  1.00 51.06    -0.411 N 
BRANCH  24  25
HETATM   25  C02   D T 601     -13.143  18.848 -11.260  1.00 53.85     0.112 C 
HETATM   26  C01   D T 601     -11.818  19.673 -11.367  1.00 52.69     0.026 C 
ENDBRANCH  24  25
BRANCH  24  27
HETATM   27  C04   D T 601     -12.431  17.238 -13.231  1.00 47.80     0.112 C 
HETATM   28  C05   D T 601     -12.578  15.737 -13.608  1.00 44.89     0.026 C 
ENDBRANCH  24  27
ENDBRANCH  23  24
ENDBRANCH  22  23
ENDBRANCH  21  22
ENDBRANCH  18  21
ENDBRANCH  13  15
ENDBRANCH   1  13
BRANCH   8  29
HETATM   29  C26   D T 601      -6.582  14.365 -21.031  1.00 21.63     0.023 A 
HETATM   30  C27   D T 601      -5.569  14.428 -20.033  1.00 22.75     0.046 A 
HETATM   31 CL28   D T 601      -5.912  15.069 -18.509  1.00 22.59    -0.083 Cl
HETATM   32  C29   D T 601      -4.240  13.997 -20.289  1.00 24.08     0.025 A 
HETATM   33  C30   D T 601      -3.916  13.448 -21.549  1.00 25.63     0.003 A 
HETATM   34  C31   D T 601      -4.907  13.357 -22.537  1.00 25.41     0.025 A 
HETATM   35  C32   D T 601      -6.225  13.810 -22.281  1.00 23.77     0.046 A 
HETATM   36 CL33   D T 601      -7.374  13.679 -23.517  1.00 25.94    -0.083 Cl
ENDBRANCH   8  29
TORSDOF 9
ENDMDL
MODEL 7
REMARK VINA RESULT:    -7.037      3.657     11.262
REMARK INTER + INTRA:         -12.176
REMARK INTER:                 -11.058
REMARK INTRA:                  -1.118
REMARK UNBOUND:                -1.437
REMARK  9 active torsions:
REMARK  status: ('A' for Active; 'I' for Inactive)
REMARK    1  A    between atoms: C02_2  and  N03_3 
REMARK    2  A    between atoms: N03_3  and  C04_4 
REMARK    3  A    between atoms: N03_3  and  C06_6 
REMARK    4  A    between atoms: C06_6  and  C07_7 
REMARK    5  A    between atoms: C07_7  and  O08_8 
REMARK    6  A    between atoms: O08_8  and  C09_9 
REMARK    7  A    between atoms: C12_12  and  N13_13 
REMARK    8  A    between atoms: N13_13  and  C14_14 
REMARK    9  A    between atoms: C21_21  and  C26_26 
ROOT
HETATM    1  C14   D T 601     -11.492  17.754 -18.244  1.00 17.92     0.728 A 
HETATM    2  N15   D T 601     -12.742  17.253 -18.316  1.00 19.07    -0.044 NA
HETATM    3  C16   D T 601     -13.583  17.167 -17.277  1.00 18.16     0.163 A 
HETATM    4  C17   D T 601     -13.125  17.597 -16.029  1.00 16.80     0.030 A 
HETATM    5  C18   D T 601     -11.816  18.076 -15.940  1.00 18.08     0.151 A 
HETATM    6  N19   D T 601     -11.039  18.141 -17.040  1.00 16.91    -0.074 NA
HETATM    7  C20   D T 601     -13.970  17.505 -14.906  1.00 17.65     0.034 A 
HETATM    8  C21   D T 601     -15.273  17.003 -15.045  1.00 18.53     0.047 A 
HETATM    9  C22   D T 601     -15.683  16.577 -16.332  1.00 19.48     0.260 A 
HETATM   10  O23   D T 601     -16.839  16.108 -16.386  1.00 21.52    -0.267 OA
HETATM   11  N24   D T 601     -14.853  16.669 -17.433  1.00 19.49    -0.301 N 
HETATM   12  C25   D T 601     -15.260  16.266 -18.770  1.00 20.07     0.161 C 
ENDROOT
BRANCH   1  13
HETATM   13  N13   D T 601     -10.730  17.815 -19.348  1.00 20.14    -0.188 N 
HETATM   14 1H13   D T 601     -10.531  18.666 -19.628  1.00 24.16     0.184 HD
BRANCH  13  15
HETATM   15  C12   D T 601     -10.199  16.812 -20.128  1.00 24.69     0.049 A 
HETATM   16  C11   D T 601     -10.521  16.842 -21.511  1.00 26.89     0.033 A 
HETATM   17  C10   D T 601     -10.004  15.865 -22.389  1.00 28.95     0.039 A 
HETATM   18  C09   D T 601      -9.145  14.860 -21.893  1.00 30.95     0.069 A 
HETATM   19  C35   D T 601      -8.805  14.845 -20.529  1.00 28.80     0.039 A 
HETATM   20  C34   D T 601      -9.336  15.808 -19.663  1.00 26.81     0.033 A 
BRANCH  18  21
HETATM   21  O08   D T 601      -8.600  13.937 -22.717  1.00 36.09    -0.350 OA
BRANCH  21  22
HETATM   22  C07   D T 601      -9.124  13.933 -24.073  1.00 42.63     0.195 C 
BRANCH  22  23
HETATM   23  C06   D T 601      -8.955  12.504 -24.678  1.00 46.85     0.143 C 
BRANCH  23  24
HETATM   24  N03   D T 601      -8.046  12.452 -25.884  1.00 51.06    -0.411 N 
BRANCH  24  25
HETATM   25  C02   D T 601      -8.189  11.375 -26.956  1.00 53.85     0.112 C 
HETATM   26  C01   D T 601      -6.899  10.707 -27.536  1.00 52.69     0.026 C 
ENDBRANCH  24  25
BRANCH  24  27
HETATM   27  C04   D T 601      -7.076  13.592 -26.044  1.00 47.80     0.112 C 
HETATM   28  C05   D T 601      -5.692  13.491 -25.344  1.00 44.89     0.026 C 
ENDBRANCH  24  27
ENDBRANCH  23  24
ENDBRANCH  22  23
ENDBRANCH  21  22
ENDBRANCH  18  21
ENDBRANCH  13  15
ENDBRANCH   1  13
BRANCH   8  29
HETATM   29  C26   D T 601     -16.157  16.917 -13.921  1.00 21.63     0.023 A 
HETATM   30  C27   D T 601     -16.924  18.049 -13.525  1.00 22.75     0.046 A 
HETATM   31 CL28   D T 601     -16.761  19.517 -14.342  1.00 22.59    -0.083 Cl
HETATM   32  C29   D T 601     -17.812  17.999 -12.419  1.00 24.08     0.025 A 
HETATM   33  C30   D T 601     -17.981  16.787 -11.714  1.00 25.63     0.003 A 
HETATM   34  C31   D T 601     -17.251  15.655 -12.105  1.00 25.41     0.025 A 
HETATM   35  C32   D T 601     -16.348  15.719 -13.196  1.00 23.77     0.046 A 
HETATM   36 CL33   D T 601     -15.492  14.321 -13.613  1.00 25.94    -0.083 Cl
ENDBRANCH   8  29
TORSDOF 9
ENDMDL
MODEL 8
REMARK VINA RESULT:    -7.033      1.818      2.655
REMARK INTER + INTRA:         -12.170
REMARK INTER:                 -10.816
REMARK INTRA:                  -1.354
REMARK UNBOUND:                -1.437
REMARK  9 active torsions:
REMARK  status: ('A' for Active; 'I' for Inactive)
REMARK    1  A    between atoms: C02_2  and  N03_3 
REMARK    2  A    between atoms: N03_3  and  C04_4 
REMARK    3  A    between atoms: N03_3  and  C06_6 
REMARK    4  A    between atoms: C06_6  and  C07_7 
REMARK    5  A    between atoms: C07_7  and  O08_8 
REMARK    6  A    between atoms: O08_8  and  C09_9 
REMARK    7  A    between atoms: C12_12  and  N13_13 
REMARK    8  A    between atoms: N13_13  and  C14_14 
REMARK    9  A    between atoms: C21_21  and  C26_26 
ROOT
HETATM    1  C14   D T 601     -12.629  17.828 -18.246  1.00 17.92     0.728 A 
HETATM    2  N15   D T 601     -12.630  16.583 -18.766  1.00 19.07    -0.044 NA
HETATM    3  C16   D T 601     -11.709  16.120 -19.621  1.00 18.16     0.163 A 
HETATM    4  C17   D T 601     -10.695  16.992 -20.023  1.00 16.80     0.030 A 
HETATM    5  C18   D T 601     -10.713  18.296 -19.522  1.00 18.08     0.151 A 
HETATM    6  N19   D T 601     -11.672  18.678 -18.654  1.00 16.91    -0.074 NA
HETATM    7  C20   D T 601      -9.717  16.552 -20.936  1.00 17.65     0.034 A 
HETATM    8  C21   D T 601      -9.750  15.236 -21.422  1.00 18.53     0.047 A 
HETATM    9  C22   D T 601     -10.804  14.396 -20.984  1.00 19.48     0.260 A 
HETATM   10  O23   D T 601     -10.800  13.249 -21.478  1.00 21.52    -0.267 OA
HETATM   11  N24   D T 601     -11.762  14.830 -20.087  1.00 19.49    -0.301 N 
HETATM   12  C25   D T 601     -12.836  13.979 -19.600  1.00 20.07     0.161 C 
ENDROOT
BRANCH   1  13
HETATM   13  N13   D T 601     -13.588  18.194 -17.382  1.00 20.14    -0.188 N 
HETATM   14 1H13   D T 601     -13.944  19.027 -17.535  1.00 24.16     0.184 HD
BRANCH  13  15
HETATM   15  C12   D T 601     -14.125  17.528 -16.302  1.00 24.69     0.049 A 
HETATM   16  C11   D T 601     -13.287  17.374 -15.167  1.00 26.89     0.033 A 
HETATM   17  C10   D T 601     -13.761  16.721 -14.008  1.00 28.95     0.039 A 
HETATM   18  C09   D T 601     -15.086  16.234 -13.970  1.00 30.95     0.069 A 
HETATM   19  C35   D T 601     -15.925  16.410 -15.084  1.00 28.80     0.039 A 
HETATM   20  C34   D T 601     -15.441  17.042 -16.234  1.00 26.81     0.033 A 
BRANCH  18  21
HETATM   21  O08   D T 601     -15.582  15.645 -12.859  1.00 36.09    -0.350 OA
BRANCH  21  22
HETATM   22  C07   D T 601     -16.369  14.445 -13.093  1.00 42.63     0.195 C 
BRANCH  22  23
HETATM   23  C06   D T 601     -17.606  14.456 -12.141  1.00 46.85     0.143 C 
BRANCH  23  24
HETATM   24  N03   D T 601     -18.906  14.804 -12.829  1.00 51.06    -0.411 N 
BRANCH  24  25
HETATM   25  C02   D T 601     -19.472  16.221 -12.813  1.00 53.85     0.112 C 
HETATM   26  C01   D T 601     -18.539  17.405 -12.398  1.00 52.69     0.026 C 
ENDBRANCH  24  25
BRANCH  24  27
HETATM   27  C04   D T 601     -19.549  13.713 -13.643  1.00 47.80     0.112 C 
HETATM   28  C05   D T 601     -19.327  13.707 -15.181  1.00 44.89     0.026 C 
ENDBRANCH  24  27
ENDBRANCH  23  24
ENDBRANCH  22  23
ENDBRANCH  21  22
ENDBRANCH  18  21
ENDBRANCH  13  15
ENDBRANCH   1  13
BRANCH   8  29
HETATM   29  C26   D T 601      -8.756  14.759 -22.336  1.00 21.63     0.023 A 
HETATM   30  C27   D T 601      -9.019  14.740 -23.735  1.00 22.75     0.046 A 
HETATM   31 CL28   D T 601     -10.522  15.229 -24.327  1.00 22.59    -0.083 Cl
HETATM   32  C29   D T 601      -8.055  14.277 -24.670  1.00 24.08     0.025 A 
HETATM   33  C30   D T 601      -6.783  13.866 -24.214  1.00 25.63     0.003 A 
HETATM   34  C31   D T 601      -6.498  13.901 -22.841  1.00 25.41     0.025 A 
HETATM   35  C32   D T 601      -7.473  14.342 -21.912  1.00 23.77     0.046 A 
HETATM   36 CL33   D T 601      -7.070  14.353 -20.269  1.00 25.94    -0.083 Cl
ENDBRANCH   8  29
TORSDOF 9
ENDMDL
MODEL 9
REMARK VINA RESULT:    -7.016      2.146      3.359
REMARK INTER + INTRA:         -12.144
REMARK INTER:                 -10.505
REMARK INTRA:                  -1.639
REMARK UNBOUND:                -1.437
REMARK  9 active torsions:
REMARK  status: ('A' for Active; 'I' for Inactive)
REMARK    1  A    between atoms: C02_2  and  N03_3 
REMARK    2  A    between atoms: N03_3  and  C04_4 
REMARK    3  A    between atoms: N03_3  and  C06_6 
REMARK    4  A    between atoms: C06_6  and  C07_7 
REMARK    5  A    between atoms: C07_7  and  O08_8 
REMARK    6  A    between atoms: O08_8  and  C09_9 
REMARK    7  A    between atoms: C12_12  and  N13_13 
REMARK    8  A    between atoms: N13_13  and  C14_14 
REMARK    9  A    between atoms: C21_21  and  C26_26 
ROOT
HETATM    1  C14   D T 601     -13.775  15.264 -18.995  1.00 17.92     0.728 A 
HETATM    2  N15   D T 601     -12.737  16.098 -19.207  1.00 19.07    -0.044 NA
HETATM    3  C16   D T 601     -11.611  15.757 -19.848  1.00 18.16     0.163 A 
HETATM    4  C17   D T 601     -11.493  14.441 -20.302  1.00 16.80     0.030 A 
HETATM    5  C18   D T 601     -12.547  13.560 -20.048  1.00 18.08     0.151 A 
HETATM    6  N19   D T 601     -13.651  13.991 -19.405  1.00 16.91    -0.074 NA
HETATM    7  C20   D T 601     -10.317  14.034 -20.964  1.00 17.65     0.034 A 
HETATM    8  C21   D T 601      -9.279  14.954 -21.183  1.00 18.53     0.047 A 
HETATM    9  C22   D T 601      -9.452  16.273 -20.697  1.00 19.48     0.260 A 
HETATM   10  O23   D T 601      -8.481  17.035 -20.891  1.00 21.52    -0.267 OA
HETATM   11  N24   D T 601     -10.607  16.670 -20.049  1.00 19.49    -0.301 N 
HETATM   12  C25   D T 601     -10.820  18.026 -19.566  1.00 20.07     0.161 C 
ENDROOT
BRANCH   1  13
HETATM   13  N13   D T 601     -14.870  15.706 -18.357  1.00 20.14    -0.188 N 
HETATM   14 1H13   D T 601     -15.402  16.266 -18.852  1.00 24.16     0.184 HD
BRANCH  13  15
HETATM   15  C12   D T 601     -15.327  15.457 -17.081  1.00 24.69     0.049 A 
HETATM   16  C11   D T 601     -14.341  15.242 -16.082  1.00 26.89     0.033 A 
HETATM   17  C10   D T 601     -14.717  15.000 -14.743  1.00 28.95     0.039 A 
HETATM   18  C09   D T 601     -16.085  14.989 -14.390  1.00 30.95     0.069 A 
HETATM   19  C35   D T 601     -17.060  15.228 -15.373  1.00 28.80     0.039 A 
HETATM   20  C34   D T 601     -16.678  15.450 -16.701  1.00 26.81     0.033 A 
BRANCH  18  21
HETATM   21  O08   D T 601     -16.473  14.804 -13.108  1.00 36.09    -0.350 OA
BRANCH  21  22
HETATM   22  C07   D T 601     -17.354  15.830 -12.575  1.00 42.63     0.195 C 
BRANCH  22  23
HETATM   23  C06   D T 601     -16.570  16.673 -11.520  1.00 46.85     0.143 C 
BRANCH  23  24
HETATM   24  N03   D T 601     -15.914  17.910 -12.088  1.00 51.06    -0.411 N 
BRANCH  24  25
HETATM   25  C02   D T 601     -14.463  18.267 -11.781  1.00 53.85     0.112 C 
HETATM   26  C01   D T 601     -13.326  17.618 -12.636  1.00 52.69     0.026 C 
ENDBRANCH  24  25
BRANCH  24  27
HETATM   27  C04   D T 601     -16.723  18.705 -13.079  1.00 47.80     0.112 C 
HETATM   28  C05   D T 601     -16.270  18.716 -14.565  1.00 44.89     0.026 C 
ENDBRANCH  24  27
ENDBRANCH  23  24
ENDBRANCH  22  23
ENDBRANCH  21  22
ENDBRANCH  18  21
ENDBRANCH  13  15
ENDBRANCH   1  13
BRANCH   8  29
HETATM   29  C26   D T 601      -8.083  14.569 -21.870  1.00 21.63     0.023 A 
HETATM   30  C27   D T 601      -8.048  14.549 -23.292  1.00 22.75     0.046 A 
HETATM   31 CL28   D T 601      -9.431  14.928 -24.184  1.00 22.59    -0.083 Cl
HETATM   32  C29   D T 601      -6.879  14.177 -24.006  1.00 24.08     0.025 A 
HETATM   33  C30   D T 601      -5.700  13.859 -23.295  1.00 25.63     0.003 A 
HETATM   34  C31   D T 601      -5.709  13.897 -21.894  1.00 25.41     0.025 A 
HETATM   35  C32   D T 601      -6.887  14.247 -21.188  1.00 23.77     0.046 A 
HETATM   36 CL33   D T 601      -6.835  14.267 -19.497  1.00 25.94    -0.083 Cl
ENDBRANCH   8  29
TORSDOF 9
ENDMDL
