MODEL 1
REMARK VINA RESULT:    -8.330      0.000      0.000
REMARK INTER + INTRA:         -14.424
REMARK INTER:                 -12.712
REMARK INTRA:                  -1.711
REMARK UNBOUND:                -1.711
REMARK  9 active torsions:
REMARK  status: ('A' for Active; 'I' for Inactive)
REMARK    1  A    between atoms: C02_2  and  N03_3 
REMARK    2  A    between atoms: N03_3  and  C04_4 
REMARK    3  A    between atoms: N03_3  and  C06_6 
REMARK    4  A    between atoms: C06_6  and  C07_7 
REMARK    5  A    between atoms: C07_7  and  O08_8 
REMARK    6  A    between atoms: O08_8  and  C09_9 
REMARK    7  A    between atoms: C12_12  and  N13_13 
REMARK    8  A    between atoms: N13_13  and  C14_14 
REMARK    9  A    between atoms: C21_21  and  C26_26 
ROOT
HETATM    1  C14   D T 601       4.598   0.287  -2.452  1.00 17.92     0.728 A 
HETATM    2  N15   D T 601       5.138   0.896  -1.377  1.00 19.07    -0.044 NA
HETATM    3  C16   D T 601       5.863   0.273  -0.439  1.00 18.16     0.163 A 
HETATM    4  C17   D T 601       6.050  -1.105  -0.569  1.00 16.80     0.030 A 
HETATM    5  C18   D T 601       5.458  -1.750  -1.657  1.00 18.08     0.151 A 
HETATM    6  N19   D T 601       4.753  -1.044  -2.564  1.00 16.91    -0.074 NA
HETATM    7  C20   D T 601       6.791  -1.803   0.406  1.00 17.65     0.034 A 
HETATM    8  C21   D T 601       7.356  -1.113   1.489  1.00 18.53     0.047 A 
HETATM    9  C22   D T 601       7.128   0.283   1.572  1.00 19.48     0.260 A 
HETATM   10  O23   D T 601       7.625   0.836   2.577  1.00 21.52    -0.267 OA
HETATM   11  N24   D T 601       6.402   0.967   0.615  1.00 19.49    -0.301 N 
HETATM   12  C25   D T 601       6.180   2.403   0.663  1.00 20.07     0.161 C 
ENDROOT
BRANCH   1  13
HETATM   13  N13   D T 601       3.900   1.002  -3.348  1.00 20.14    -0.188 N 
HETATM   14 1H13   D T 601       3.071   1.271  -3.060  1.00 24.16     0.184 HD
BRANCH  13  15
HETATM   15  C12   D T 601       4.221   1.397  -4.628  1.00 24.69     0.049 A 
HETATM   16  C11   D T 601       3.220   2.096  -5.351  1.00 26.89     0.033 A 
HETATM   17  C10   D T 601       3.471   2.556  -6.662  1.00 28.95     0.039 A 
HETATM   18  C09   D T 601       4.733   2.335  -7.254  1.00 30.95     0.069 A 
HETATM   19  C35   D T 601       5.735   1.667  -6.528  1.00 28.80     0.039 A 
HETATM   20  C34   D T 601       5.472   1.200  -5.236  1.00 26.81     0.033 A 
BRANCH  18  21
HETATM   21  O08   D T 601       5.017   2.803  -8.490  1.00 36.09    -0.350 OA
BRANCH  21  22
HETATM   22  C07   D T 601       5.996   3.876  -8.536  1.00 42.63     0.195 C 
BRANCH  22  23
HETATM   23  C06   D T 601       5.260   5.242  -8.361  1.00 46.85     0.143 C 
BRANCH  23  24
HETATM   24  N03   D T 601       5.645   5.988  -7.104  1.00 51.06    -0.411 N 
BRANCH  24  25
HETATM   25  C02   D T 601       6.305   5.288  -5.919  1.00 53.85     0.112 C 
HETATM   26  C01   D T 601       5.460   5.031  -4.628  1.00 52.69     0.026 C 
ENDBRANCH  24  25
BRANCH  24  27
HETATM   27  C04   D T 601       5.463   7.483  -7.129  1.00 47.80     0.112 C 
HETATM   28  C05   D T 601       6.339   8.351  -6.183  1.00 44.89     0.026 C 
ENDBRANCH  24  27
ENDBRANCH  23  24
ENDBRANCH  22  23
ENDBRANCH  21  22
ENDBRANCH  18  21
ENDBRANCH  13  15
ENDBRANCH   1  13
BRANCH   8  29
HETATM   29  C26   D T 601       8.128  -1.798   2.482  1.00 21.63     0.023 A 
HETATM   30  C27   D T 601       7.482  -2.434   3.579  1.00 22.75     0.046 A 
HETATM   31 CL28   D T 601       5.805  -2.343   3.750  1.00 22.59    -0.083 Cl
HETATM   32  C29   D T 601       8.215  -3.125   4.580  1.00 24.08     0.025 A 
HETATM   33  C30   D T 601       9.620  -3.229   4.468  1.00 25.63     0.003 A 
HETATM   34  C31   D T 601      10.270  -2.630   3.380  1.00 25.41     0.025 A 
HETATM   35  C32   D T 601       9.534  -1.920   2.398  1.00 23.77     0.046 A 
HETATM   36 CL33   D T 601      10.379  -1.213   1.115  1.00 25.94    -0.083 Cl
ENDBRANCH   8  29
TORSDOF 9
ENDMDL
MODEL 2
REMARK VINA RESULT:    -8.308      0.052      1.530
REMARK INTER + INTRA:         -14.391
REMARK INTER:                 -12.717
REMARK INTRA:                  -1.674
REMARK UNBOUND:                -1.711
REMARK  9 active torsions:
REMARK  status: ('A' for Active; 'I' for Inactive)
REMARK    1  A    between atoms: C02_2  and  N03_3 
REMARK    2  A    between atoms: N03_3  and  C04_4 
REMARK    3  A    between atoms: N03_3  and  C06_6 
REMARK    4  A    between atoms: C06_6  and  C07_7 
REMARK    5  A    between atoms: C07_7  and  O08_8 
REMARK    6  A    between atoms: O08_8  and  C09_9 
REMARK    7  A    between atoms: C12_12  and  N13_13 
REMARK    8  A    between atoms: N13_13  and  C14_14 
REMARK    9  A    between atoms: C21_21  and  C26_26 
ROOT
HETATM    1  C14   D T 601       4.567   0.298  -2.457  1.00 17.92     0.728 A 
HETATM    2  N15   D T 601       5.101   0.898  -1.374  1.00 19.07    -0.044 NA
HETATM    3  C16   D T 601       5.817   0.265  -0.434  1.00 18.16     0.163 A 
HETATM    4  C17   D T 601       6.000  -1.113  -0.573  1.00 16.80     0.030 A 
HETATM    5  C18   D T 601       5.414  -1.748  -1.670  1.00 18.08     0.151 A 
HETATM    6  N19   D T 601       4.718  -1.032  -2.578  1.00 16.91    -0.074 NA
HETATM    7  C20   D T 601       6.730  -1.820   0.403  1.00 17.65     0.034 A 
HETATM    8  C21   D T 601       7.289  -1.140   1.496  1.00 18.53     0.047 A 
HETATM    9  C22   D T 601       7.066   0.256   1.587  1.00 19.48     0.260 A 
HETATM   10  O23   D T 601       7.557   0.800   2.599  1.00 21.52    -0.267 OA
HETATM   11  N24   D T 601       6.351   0.950   0.628  1.00 19.49    -0.301 N 
HETATM   12  C25   D T 601       6.133   2.386   0.685  1.00 20.07     0.161 C 
ENDROOT
BRANCH   1  13
HETATM   13  N13   D T 601       3.879   1.022  -3.354  1.00 20.14    -0.188 N 
HETATM   14 1H13   D T 601       3.056   1.306  -3.064  1.00 24.16     0.184 HD
BRANCH  13  15
HETATM   15  C12   D T 601       4.205   1.409  -4.635  1.00 24.69     0.049 A 
HETATM   16  C11   D T 601       3.211   2.116  -5.361  1.00 26.89     0.033 A 
HETATM   17  C10   D T 601       3.466   2.567  -6.674  1.00 28.95     0.039 A 
HETATM   18  C09   D T 601       4.725   2.330  -7.265  1.00 30.95     0.069 A 
HETATM   19  C35   D T 601       5.720   1.655  -6.537  1.00 28.80     0.039 A 
HETATM   20  C34   D T 601       5.452   1.196  -5.243  1.00 26.81     0.033 A 
BRANCH  18  21
HETATM   21  O08   D T 601       5.013   2.790  -8.504  1.00 36.09    -0.350 OA
BRANCH  21  22
HETATM   22  C07   D T 601       5.995   3.860  -8.554  1.00 42.63     0.195 C 
BRANCH  22  23
HETATM   23  C06   D T 601       5.264   5.228  -8.378  1.00 46.85     0.143 C 
BRANCH  23  24
HETATM   24  N03   D T 601       5.657   5.976  -7.124  1.00 51.06    -0.411 N 
BRANCH  24  25
HETATM   25  C02   D T 601       6.321   5.276  -5.941  1.00 53.85     0.112 C 
HETATM   26  C01   D T 601       5.481   5.020  -4.647  1.00 52.69     0.026 C 
ENDBRANCH  24  25
BRANCH  24  27
HETATM   27  C04   D T 601       5.478   7.471  -7.150  1.00 47.80     0.112 C 
HETATM   28  C05   D T 601       6.349   8.337  -6.198  1.00 44.89     0.026 C 
ENDBRANCH  24  27
ENDBRANCH  23  24
ENDBRANCH  22  23
ENDBRANCH  21  22
ENDBRANCH  18  21
ENDBRANCH  13  15
ENDBRANCH   1  13
BRANCH   8  29
HETATM   29  C26   D T 601       8.051  -1.835   2.489  1.00 21.63     0.023 A 
HETATM   30  C27   D T 601       9.469  -1.897   2.391  1.00 22.75     0.046 A 
HETATM   31 CL28   D T 601      10.264  -1.198   1.076  1.00 22.59    -0.083 Cl
HETATM   32  C29   D T 601      10.257  -2.573   3.360  1.00 24.08     0.025 A 
HETATM   33  C30   D T 601       9.629  -3.165   4.479  1.00 25.63     0.003 A 
HETATM   34  C31   D T 601       8.235  -3.092   4.605  1.00 25.41     0.025 A 
HETATM   35  C32   D T 601       7.452  -2.436   3.621  1.00 23.77     0.046 A 
HETATM   36 CL33   D T 601       5.774  -2.390   3.827  1.00 25.94    -0.083 Cl
ENDBRANCH   8  29
TORSDOF 9
ENDMDL
MODEL 3
REMARK VINA RESULT:    -8.138      3.518      9.743
REMARK INTER + INTRA:         -14.131
REMARK INTER:                 -12.648
REMARK INTRA:                  -1.483
REMARK UNBOUND:                -1.711
REMARK  9 active torsions:
REMARK  status: ('A' for Active; 'I' for Inactive)
REMARK    1  A    between atoms: C02_2  and  N03_3 
REMARK    2  A    between atoms: N03_3  and  C04_4 
REMARK    3  A    between atoms: N03_3  and  C06_6 
REMARK    4  A    between atoms: C06_6  and  C07_7 
REMARK    5  A    between atoms: C07_7  and  O08_8 
REMARK    6  A    between atoms: O08_8  and  C09_9 
REMARK    7  A    between atoms: C12_12  and  N13_13 
REMARK    8  A    between atoms: N13_13  and  C14_14 
REMARK    9  A    between atoms: C21_21  and  C26_26 
ROOT
HETATM    1  C14   D T 601       5.222   0.667  -3.597  1.00 17.92     0.728 A 
HETATM    2  N15   D T 601       6.203   1.591  -3.640  1.00 19.07    -0.044 NA
HETATM    3  C16   D T 601       6.047   2.841  -4.096  1.00 18.16     0.163 A 
HETATM    4  C17   D T 601       4.789   3.203  -4.584  1.00 16.80     0.030 A 
HETATM    5  C18   D T 601       3.779   2.239  -4.582  1.00 18.08     0.151 A 
HETATM    6  N19   D T 601       4.019   1.005  -4.092  1.00 16.91    -0.074 NA
HETATM    7  C20   D T 601       4.585   4.503  -5.090  1.00 17.65     0.034 A 
HETATM    8  C21   D T 601       5.636   5.434  -5.083  1.00 18.53     0.047 A 
HETATM    9  C22   D T 601       6.890   5.009  -4.581  1.00 19.48     0.260 A 
HETATM   10  O23   D T 601       7.795   5.869  -4.635  1.00 21.52    -0.267 OA
HETATM   11  N24   D T 601       7.089   3.734  -4.084  1.00 19.49    -0.301 N 
HETATM   12  C25   D T 601       8.359   3.284  -3.537  1.00 20.07     0.161 C 
ENDROOT
BRANCH   1  13
HETATM   13  N13   D T 601       5.474  -0.556  -3.105  1.00 20.14    -0.188 N 
HETATM   14 1H13   D T 601       5.577  -1.210  -3.741  1.00 24.16     0.184 HD
BRANCH  13  15
HETATM   15  C12   D T 601       5.603  -0.992  -1.805  1.00 24.69     0.049 A 
HETATM   16  C11   D T 601       6.922  -1.093  -1.293  1.00 26.89     0.033 A 
HETATM   17  C10   D T 601       7.146  -1.512   0.036  1.00 28.95     0.039 A 
HETATM   18  C09   D T 601       6.050  -1.817   0.870  1.00 30.95     0.069 A 
HETATM   19  C35   D T 601       4.741  -1.691   0.373  1.00 28.80     0.039 A 
HETATM   20  C34   D T 601       4.529  -1.291  -0.951  1.00 26.81     0.033 A 
BRANCH  18  21
HETATM   21  O08   D T 601       6.231  -2.178   2.160  1.00 36.09    -0.350 OA
BRANCH  21  22
HETATM   22  C07   D T 601       7.151  -1.342   2.913  1.00 42.63     0.195 C 
BRANCH  22  23
HETATM   23  C06   D T 601       6.493   0.055   3.145  1.00 46.85     0.143 C 
BRANCH  23  24
HETATM   24  N03   D T 601       7.183   1.185   2.417  1.00 51.06    -0.411 N 
BRANCH  24  25
HETATM   25  C02   D T 601       6.400   2.307   1.739  1.00 53.85     0.112 C 
HETATM   26  C01   D T 601       6.009   2.151   0.233  1.00 52.69     0.026 C 
ENDBRANCH  24  25
BRANCH  24  27
HETATM   27  C04   D T 601       8.687   1.222   2.504  1.00 47.80     0.112 C 
HETATM   28  C05   D T 601       9.488   1.717   1.268  1.00 44.89     0.026 C 
ENDBRANCH  24  27
ENDBRANCH  23  24
ENDBRANCH  22  23
ENDBRANCH  21  22
ENDBRANCH  18  21
ENDBRANCH  13  15
ENDBRANCH   1  13
BRANCH   8  29
HETATM   29  C26   D T 601       5.447   6.765  -5.575  1.00 21.63     0.023 A 
HETATM   30  C27   D T 601       5.438   7.867  -4.675  1.00 22.75     0.046 A 
HETATM   31 CL28   D T 601       5.597   7.612  -3.013  1.00 22.59    -0.083 Cl
HETATM   32  C29   D T 601       5.258   9.201  -5.127  1.00 24.08     0.025 A 
HETATM   33  C30   D T 601       5.129   9.456  -6.511  1.00 25.63     0.003 A 
HETATM   34  C31   D T 601       5.160   8.385  -7.414  1.00 25.41     0.025 A 
HETATM   35  C32   D T 601       5.317   7.054  -6.953  1.00 23.77     0.046 A 
HETATM   36 CL33   D T 601       5.338   5.805  -8.094  1.00 25.94    -0.083 Cl
ENDBRANCH   8  29
TORSDOF 9
ENDMDL
MODEL 4
REMARK VINA RESULT:    -8.115      3.494      9.814
REMARK INTER + INTRA:         -14.096
REMARK INTER:                 -12.487
REMARK INTRA:                  -1.610
REMARK UNBOUND:                -1.711
REMARK  9 active torsions:
REMARK  status: ('A' for Active; 'I' for Inactive)
REMARK    1  A    between atoms: C02_2  and  N03_3 
REMARK    2  A    between atoms: N03_3  and  C04_4 
REMARK    3  A    between atoms: N03_3  and  C06_6 
REMARK    4  A    between atoms: C06_6  and  C07_7 
REMARK    5  A    between atoms: C07_7  and  O08_8 
REMARK    6  A    between atoms: O08_8  and  C09_9 
REMARK    7  A    between atoms: C12_12  and  N13_13 
REMARK    8  A    between atoms: N13_13  and  C14_14 
REMARK    9  A    between atoms: C21_21  and  C26_26 
ROOT
HETATM    1  C14   D T 601       5.358   0.533  -3.415  1.00 17.92     0.728 A 
HETATM    2  N15   D T 601       6.321   1.476  -3.451  1.00 19.07    -0.044 NA
HETATM    3  C16   D T 601       6.153   2.711  -3.943  1.00 18.16     0.163 A 
HETATM    4  C17   D T 601       4.903   3.034  -4.478  1.00 16.80     0.030 A 
HETATM    5  C18   D T 601       3.914   2.049  -4.482  1.00 18.08     0.151 A 
HETATM    6  N19   D T 601       4.164   0.833  -3.954  1.00 16.91    -0.074 NA
HETATM    7  C20   D T 601       4.689   4.316  -5.023  1.00 17.65     0.034 A 
HETATM    8  C21   D T 601       5.720   5.269  -5.008  1.00 18.53     0.047 A 
HETATM    9  C22   D T 601       6.967   4.883  -4.458  1.00 19.48     0.260 A 
HETATM   10  O23   D T 601       7.854   5.761  -4.506  1.00 21.52    -0.267 OA
HETATM   11  N24   D T 601       7.175   3.625  -3.922  1.00 19.49    -0.301 N 
HETATM   12  C25   D T 601       8.437   3.216  -3.327  1.00 20.07     0.161 C 
ENDROOT
BRANCH   1  13
HETATM   13  N13   D T 601       5.619  -0.672  -2.885  1.00 20.14    -0.188 N 
HETATM   14 1H13   D T 601       5.629  -1.362  -3.490  1.00 24.16     0.184 HD
BRANCH  13  15
HETATM   15  C12   D T 601       5.874  -1.045  -1.583  1.00 24.69     0.049 A 
HETATM   16  C11   D T 601       4.747  -1.255  -0.747  1.00 26.89     0.033 A 
HETATM   17  C10   D T 601       4.915  -1.658   0.596  1.00 28.95     0.039 A 
HETATM   18  C09   D T 601       6.213  -1.870   1.107  1.00 30.95     0.069 A 
HETATM   19  C35   D T 601       7.329  -1.690   0.272  1.00 28.80     0.039 A 
HETATM   20  C34   D T 601       7.154  -1.274  -1.052  1.00 26.81     0.033 A 
BRANCH  18  21
HETATM   21  O08   D T 601       6.403  -2.299   2.376  1.00 36.09    -0.350 OA
BRANCH  21  22
HETATM   22  C07   D T 601       7.409  -1.572   3.131  1.00 42.63     0.195 C 
BRANCH  22  23
HETATM   23  C06   D T 601       6.841  -0.169   3.513  1.00 46.85     0.143 C 
BRANCH  23  24
HETATM   24  N03   D T 601       7.594   0.986   2.893  1.00 51.06    -0.411 N 
BRANCH  24  25
HETATM   25  C02   D T 601       9.117   0.998   2.795  1.00 53.85     0.112 C 
HETATM   26  C01   D T 601       9.785   0.803   1.394  1.00 52.69     0.026 C 
ENDBRANCH  24  25
BRANCH  24  27
HETATM   27  C04   D T 601       6.759   2.068   2.260  1.00 47.80     0.112 C 
HETATM   28  C05   D T 601       6.318   1.893   0.781  1.00 44.89     0.026 C 
ENDBRANCH  24  27
ENDBRANCH  23  24
ENDBRANCH  22  23
ENDBRANCH  21  22
ENDBRANCH  18  21
ENDBRANCH  13  15
ENDBRANCH   1  13
BRANCH   8  29
HETATM   29  C26   D T 601       5.519   6.583  -5.539  1.00 21.63     0.023 A 
HETATM   30  C27   D T 601       5.374   6.775  -6.941  1.00 22.75     0.046 A 
HETATM   31 CL28   D T 601       5.488   5.463  -7.998  1.00 22.59    -0.083 Cl
HETATM   32  C29   D T 601       5.170   8.063  -7.503  1.00 24.08     0.025 A 
HETATM   33  C30   D T 601       5.062   9.186  -6.651  1.00 25.63     0.003 A 
HETATM   34  C31   D T 601       5.178   9.012  -5.265  1.00 25.41     0.025 A 
HETATM   35  C32   D T 601       5.405   7.726  -4.714  1.00 23.77     0.046 A 
HETATM   36 CL33   D T 601       5.544   7.585  -3.034  1.00 25.94    -0.083 Cl
ENDBRANCH   8  29
TORSDOF 9
ENDMDL
MODEL 5
REMARK VINA RESULT:    -7.956      1.323      2.397
REMARK INTER + INTRA:         -13.854
REMARK INTER:                 -12.297
REMARK INTRA:                  -1.557
REMARK UNBOUND:                -1.711
REMARK  9 active torsions:
REMARK  status: ('A' for Active; 'I' for Inactive)
REMARK    1  A    between atoms: C02_2  and  N03_3 
REMARK    2  A    between atoms: N03_3  and  C04_4 
REMARK    3  A    between atoms: N03_3  and  C06_6 
REMARK    4  A    between atoms: C06_6  and  C07_7 
REMARK    5  A    between atoms: C07_7  and  O08_8 
REMARK    6  A    between atoms: O08_8  and  C09_9 
REMARK    7  A    between atoms: C12_12  and  N13_13 
REMARK    8  A    between atoms: N13_13  and  C14_14 
REMARK    9  A    between atoms: C21_21  and  C26_26 
ROOT
HETATM    1  C14   D T 601       4.622   0.718  -2.660  1.00 17.92     0.728 A 
HETATM    2  N15   D T 601       5.088   1.250  -1.512  1.00 19.07    -0.044 NA
HETATM    3  C16   D T 601       5.788   0.572  -0.593  1.00 18.16     0.163 A 
HETATM    4  C17   D T 601       6.030  -0.784  -0.829  1.00 16.80     0.030 A 
HETATM    5  C18   D T 601       5.514  -1.352  -1.995  1.00 18.08     0.151 A 
HETATM    6  N19   D T 601       4.828  -0.592  -2.875  1.00 16.91    -0.074 NA
HETATM    7  C20   D T 601       6.747  -1.539   0.121  1.00 17.65     0.034 A 
HETATM    8  C21   D T 601       7.234  -0.927   1.286  1.00 18.53     0.047 A 
HETATM    9  C22   D T 601       6.955   0.450   1.473  1.00 19.48     0.260 A 
HETATM   10  O23   D T 601       7.383   0.929   2.545  1.00 21.52    -0.267 OA
HETATM   11  N24   D T 601       6.252   1.190   0.541  1.00 19.49    -0.301 N 
HETATM   12  C25   D T 601       5.978   2.609   0.698  1.00 20.07     0.161 C 
ENDROOT
BRANCH   1  13
HETATM   13  N13   D T 601       3.943   1.485  -3.527  1.00 20.14    -0.188 N 
HETATM   14 1H13   D T 601       3.041   1.321  -3.558  1.00 24.16     0.184 HD
BRANCH  13  15
HETATM   15  C12   D T 601       4.377   2.477  -4.379  1.00 24.69     0.049 A 
HETATM   16  C11   D T 601       5.780   2.591  -4.565  1.00 26.89     0.033 A 
HETATM   17  C10   D T 601       6.312   3.566  -5.435  1.00 28.95     0.039 A 
HETATM   18  C09   D T 601       5.443   4.426  -6.140  1.00 30.95     0.069 A 
HETATM   19  C35   D T 601       4.052   4.296  -5.979  1.00 28.80     0.039 A 
HETATM   20  C34   D T 601       3.535   3.337  -5.102  1.00 26.81     0.033 A 
BRANCH  18  21
HETATM   21  O08   D T 601       5.921   5.340  -7.015  1.00 36.09    -0.350 OA
BRANCH  21  22
HETATM   22  C07   D T 601       5.343   6.668  -6.900  1.00 42.63     0.195 C 
BRANCH  22  23
HETATM   23  C06   D T 601       6.460   7.673  -6.476  1.00 46.85     0.143 C 
BRANCH  23  24
HETATM   24  N03   D T 601       6.412   8.061  -5.016  1.00 51.06    -0.411 N 
BRANCH  24  25
HETATM   25  C02   D T 601       6.762   7.074  -3.906  1.00 53.85     0.112 C 
HETATM   26  C01   D T 601       5.614   6.515  -3.003  1.00 52.69     0.026 C 
ENDBRANCH  24  25
BRANCH  24  27
HETATM   27  C04   D T 601       6.128   9.510  -4.715  1.00 47.80     0.112 C 
HETATM   28  C05   D T 601       7.217  10.341  -3.982  1.00 44.89     0.026 C 
ENDBRANCH  24  27
ENDBRANCH  23  24
ENDBRANCH  22  23
ENDBRANCH  21  22
ENDBRANCH  18  21
ENDBRANCH  13  15
ENDBRANCH   1  13
BRANCH   8  29
HETATM   29  C26   D T 601       7.981  -1.669   2.256  1.00 21.63     0.023 A 
HETATM   30  C27   D T 601       9.403  -1.680   2.209  1.00 22.75     0.046 A 
HETATM   31 CL28   D T 601      10.223  -0.861   0.982  1.00 22.59    -0.083 Cl
HETATM   32  C29   D T 601      10.177  -2.402   3.157  1.00 24.08     0.025 A 
HETATM   33  C30   D T 601       9.528  -3.095   4.204  1.00 25.63     0.003 A 
HETATM   34  C31   D T 601       8.128  -3.074   4.279  1.00 25.41     0.025 A 
HETATM   35  C32   D T 601       7.362  -2.371   3.316  1.00 23.77     0.046 A 
HETATM   36 CL33   D T 601       5.676  -2.392   3.458  1.00 25.94    -0.083 Cl
ENDBRANCH   8  29
TORSDOF 9
ENDMDL
MODEL 6
REMARK VINA RESULT:    -7.783      3.541     10.693
REMARK INTER + INTRA:         -13.589
REMARK INTER:                 -12.390
REMARK INTRA:                  -1.199
REMARK UNBOUND:                -1.711
REMARK  9 active torsions:
REMARK  status: ('A' for Active; 'I' for Inactive)
REMARK    1  A    between atoms: C02_2  and  N03_3 
REMARK    2  A    between atoms: N03_3  and  C04_4 
REMARK    3  A    between atoms: N03_3  and  C06_6 
REMARK    4  A    between atoms: C06_6  and  C07_7 
REMARK    5  A    between atoms: C07_7  and  O08_8 
REMARK    6  A    between atoms: O08_8  and  C09_9 
REMARK    7  A    between atoms: C12_12  and  N13_13 
REMARK    8  A    between atoms: N13_13  and  C14_14 
REMARK    9  A    between atoms: C21_21  and  C26_26 
ROOT
HETATM    1  C14   D T 601       5.819   0.753  -2.947  1.00 17.92     0.728 A 
HETATM    2  N15   D T 601       6.740   1.720  -3.129  1.00 19.07    -0.044 NA
HETATM    3  C16   D T 601       6.488   2.909  -3.692  1.00 18.16     0.163 A 
HETATM    4  C17   D T 601       5.189   3.153  -4.143  1.00 16.80     0.030 A 
HETATM    5  C18   D T 601       4.240   2.141  -3.996  1.00 18.08     0.151 A 
HETATM    6  N19   D T 601       4.575   0.975  -3.406  1.00 16.91    -0.074 NA
HETATM    7  C20   D T 601       4.885   4.385  -4.758  1.00 17.65     0.034 A 
HETATM    8  C21   D T 601       5.877   5.368  -4.896  1.00 18.53     0.047 A 
HETATM    9  C22   D T 601       7.178   5.062  -4.424  1.00 19.48     0.260 A 
HETATM   10  O23   D T 601       8.026   5.961  -4.607  1.00 21.52    -0.267 OA
HETATM   11  N24   D T 601       7.475   3.855  -3.820  1.00 19.49    -0.301 N 
HETATM   12  C25   D T 601       8.794   3.530  -3.302  1.00 20.07     0.161 C 
ENDROOT
BRANCH   1  13
HETATM   13  N13   D T 601       6.166  -0.401  -2.356  1.00 20.14    -0.188 N 
HETATM   14 1H13   D T 601       6.539  -1.022  -2.920  1.00 24.16     0.184 HD
BRANCH  13  15
HETATM   15  C12   D T 601       6.053  -0.808  -1.044  1.00 24.69     0.049 A 
HETATM   16  C11   D T 601       6.392   0.145  -0.049  1.00 26.89     0.033 A 
HETATM   17  C10   D T 601       6.287  -0.180   1.321  1.00 28.95     0.039 A 
HETATM   18  C09   D T 601       5.825  -1.456   1.706  1.00 30.95     0.069 A 
HETATM   19  C35   D T 601       5.462  -2.392   0.721  1.00 28.80     0.039 A 
HETATM   20  C34   D T 601       5.586  -2.067  -0.634  1.00 26.81     0.033 A 
BRANCH  18  21
HETATM   21  O08   D T 601       5.671  -1.780   3.009  1.00 36.09    -0.350 OA
BRANCH  21  22
HETATM   22  C07   D T 601       6.094  -0.761   3.955  1.00 42.63     0.195 C 
BRANCH  22  23
HETATM   23  C06   D T 601       6.779  -1.453   5.175  1.00 46.85     0.143 C 
BRANCH  23  24
HETATM   24  N03   D T 601       8.174  -1.961   4.889  1.00 51.06    -0.411 N 
BRANCH  24  25
HETATM   25  C02   D T 601       9.129  -1.216   3.960  1.00 53.85     0.112 C 
HETATM   26  C01   D T 601       9.454  -1.832   2.559  1.00 52.69     0.026 C 
ENDBRANCH  24  25
BRANCH  24  27
HETATM   27  C04   D T 601       8.621  -3.170   5.667  1.00 47.80     0.112 C 
HETATM   28  C05   D T 601       8.494  -4.568   5.000  1.00 44.89     0.026 C 
ENDBRANCH  24  27
ENDBRANCH  23  24
ENDBRANCH  22  23
ENDBRANCH  21  22
ENDBRANCH  18  21
ENDBRANCH  13  15
ENDBRANCH   1  13
BRANCH   8  29
HETATM   29  C26   D T 601       5.587   6.633  -5.500  1.00 21.63     0.023 A 
HETATM   30  C27   D T 601       5.484   7.803  -4.698  1.00 22.75     0.046 A 
HETATM   31 CL28   D T 601       5.650   7.705  -3.021  1.00 22.59    -0.083 Cl
HETATM   32  C29   D T 601       5.201   9.075  -5.263  1.00 24.08     0.025 A 
HETATM   33  C30   D T 601       5.062   9.200  -6.664  1.00 25.63     0.003 A 
HETATM   34  C31   D T 601       5.185   8.061  -7.472  1.00 25.41     0.025 A 
HETATM   35  C32   D T 601       5.444   6.791  -6.898  1.00 23.77     0.046 A 
HETATM   36 CL33   D T 601       5.573   5.455  -7.928  1.00 25.94    -0.083 Cl
ENDBRANCH   8  29
TORSDOF 9
ENDMDL
MODEL 7
REMARK VINA RESULT:    -7.666      6.952     11.347
REMARK INTER + INTRA:         -13.411
REMARK INTER:                 -12.156
REMARK INTRA:                  -1.256
REMARK UNBOUND:                -1.711
REMARK  9 active torsions:
REMARK  status: ('A' for Active; 'I' for Inactive)
REMARK    1  A    between atoms: C02_2  and  N03_3 
REMARK    2  A    between atoms: N03_3  and  C04_4 
REMARK    3  A    between atoms: N03_3  and  C06_6 
REMARK    4  A    between atoms: C06_6  and  C07_7 
REMARK    5  A    between atoms: C07_7  and  O08_8 
REMARK    6  A    between atoms: O08_8  and  C09_9 
REMARK    7  A    between atoms: C12_12  and  N13_13 
REMARK    8  A    between atoms: N13_13  and  C14_14 
REMARK    9  A    between atoms: C21_21  and  C26_26 
ROOT
HETATM    1  C14   D T 601       7.125   9.635  -4.534  1.00 17.92     0.728 A 
HETATM    2  N15   D T 601       7.472   8.354  -4.295  1.00 19.07    -0.044 NA
HETATM    3  C16   D T 601       6.881   7.292  -4.858  1.00 18.16     0.163 A 
HETATM    4  C17   D T 601       5.816   7.527  -5.731  1.00 16.80     0.030 A 
HETATM    5  C18   D T 601       5.423   8.849  -5.951  1.00 18.08     0.151 A 
HETATM    6  N19   D T 601       6.083   9.862  -5.352  1.00 16.91    -0.074 NA
HETATM    7  C20   D T 601       5.153   6.437  -6.331  1.00 17.65     0.034 A 
HETATM    8  C21   D T 601       5.576   5.125  -6.069  1.00 18.53     0.047 A 
HETATM    9  C22   D T 601       6.658   4.948  -5.171  1.00 19.48     0.260 A 
HETATM   10  O23   D T 601       6.964   3.757  -4.950  1.00 21.52    -0.267 OA
HETATM   11  N24   D T 601       7.308   6.017  -4.585  1.00 19.49    -0.301 N 
HETATM   12  C25   D T 601       8.438   5.861  -3.683  1.00 20.07     0.161 C 
ENDROOT
BRANCH   1  13
HETATM   13  N13   D T 601       7.791  10.634  -3.933  1.00 20.14    -0.188 N 
HETATM   14 1H13   D T 601       8.250  11.185  -4.505  1.00 24.16     0.184 HD
BRANCH  13  15
HETATM   15  C12   D T 601       7.899  10.967  -2.600  1.00 24.69     0.049 A 
HETATM   16  C11   D T 601       7.279  12.176  -2.192  1.00 26.89     0.033 A 
HETATM   17  C10   D T 601       7.322  12.585  -0.842  1.00 28.95     0.039 A 
HETATM   18  C09   D T 601       7.972  11.777   0.115  1.00 30.95     0.069 A 
HETATM   19  C35   D T 601       8.562  10.564  -0.282  1.00 28.80     0.039 A 
HETATM   20  C34   D T 601       8.529  10.176  -1.626  1.00 26.81     0.033 A 
BRANCH  18  21
HETATM   21  O08   D T 601       7.991  12.120   1.423  1.00 36.09    -0.350 OA
BRANCH  21  22
HETATM   22  C07   D T 601       6.807  12.816   1.898  1.00 42.63     0.195 C 
BRANCH  22  23
HETATM   23  C06   D T 601       7.226  14.214   2.449  1.00 46.85     0.143 C 
BRANCH  23  24
HETATM   24  N03   D T 601       6.833  15.368   1.555  1.00 51.06    -0.411 N 
BRANCH  24  25
HETATM   25  C02   D T 601       5.373  15.723   1.289  1.00 53.85     0.112 C 
HETATM   26  C01   D T 601       4.307  15.410   2.391  1.00 52.69     0.026 C 
ENDBRANCH  24  25
BRANCH  24  27
HETATM   27  C04   D T 601       7.955  16.233   1.043  1.00 47.80     0.112 C 
HETATM   28  C05   D T 601       9.175  15.542   0.372  1.00 44.89     0.026 C 
ENDBRANCH  24  27
ENDBRANCH  23  24
ENDBRANCH  22  23
ENDBRANCH  21  22
ENDBRANCH  18  21
ENDBRANCH  13  15
ENDBRANCH   1  13
BRANCH   8  29
HETATM   29  C26   D T 601       4.930   4.003  -6.681  1.00 21.63     0.023 A 
HETATM   30  C27   D T 601       3.870   3.333  -6.010  1.00 22.75     0.046 A 
HETATM   31 CL28   D T 601       3.397   3.819  -4.464  1.00 22.59    -0.083 Cl
HETATM   32  C29   D T 601       3.204   2.220  -6.588  1.00 24.08     0.025 A 
HETATM   33  C30   D T 601       3.565   1.787  -7.884  1.00 25.63     0.003 A 
HETATM   34  C31   D T 601       4.591   2.452  -8.570  1.00 25.41     0.025 A 
HETATM   35  C32   D T 601       5.268   3.547  -7.977  1.00 23.77     0.046 A 
HETATM   36 CL33   D T 601       6.502   4.301  -8.854  1.00 25.94    -0.083 Cl
ENDBRANCH   8  29
TORSDOF 9
ENDMDL
MODEL 8
REMARK VINA RESULT:    -7.650      2.040      2.879
REMARK INTER + INTRA:         -13.387
REMARK INTER:                 -11.617
REMARK INTRA:                  -1.770
REMARK UNBOUND:                -1.711
REMARK  9 active torsions:
REMARK  status: ('A' for Active; 'I' for Inactive)
REMARK    1  A    between atoms: C02_2  and  N03_3 
REMARK    2  A    between atoms: N03_3  and  C04_4 
REMARK    3  A    between atoms: N03_3  and  C06_6 
REMARK    4  A    between atoms: C06_6  and  C07_7 
REMARK    5  A    between atoms: C07_7  and  O08_8 
REMARK    6  A    between atoms: O08_8  and  C09_9 
REMARK    7  A    between atoms: C12_12  and  N13_13 
REMARK    8  A    between atoms: N13_13  and  C14_14 
REMARK    9  A    between atoms: C21_21  and  C26_26 
ROOT
HETATM    1  C14   D T 601       5.218   0.234  -3.536  1.00 17.92     0.728 A 
HETATM    2  N15   D T 601       6.059   1.152  -3.018  1.00 19.07    -0.044 NA
HETATM    3  C16   D T 601       6.405   1.217  -1.726  1.00 18.16     0.163 A 
HETATM    4  C17   D T 601       5.836   0.288  -0.851  1.00 16.80     0.030 A 
HETATM    5  C18   D T 601       4.932  -0.638  -1.373  1.00 18.08     0.151 A 
HETATM    6  N19   D T 601       4.648  -0.643  -2.692  1.00 16.91    -0.074 NA
HETATM    7  C20   D T 601       6.159   0.333   0.520  1.00 17.65     0.034 A 
HETATM    8  C21   D T 601       7.064   1.293   0.999  1.00 18.53     0.047 A 
HETATM    9  C22   D T 601       7.606   2.212   0.067  1.00 19.48     0.260 A 
HETATM   10  O23   D T 601       8.376   3.064   0.560  1.00 21.52    -0.267 OA
HETATM   11  N24   D T 601       7.289   2.166  -1.278  1.00 19.49    -0.301 N 
HETATM   12  C25   D T 601       7.854   3.081  -2.257  1.00 20.07     0.161 C 
ENDROOT
BRANCH   1  13
HETATM   13  N13   D T 601       4.945   0.240  -4.850  1.00 20.14    -0.188 N 
HETATM   14 1H13   D T 601       4.811  -0.591  -5.216  1.00 24.16     0.184 HD
BRANCH  13  15
HETATM   15  C12   D T 601       4.834   1.286  -5.740  1.00 24.69     0.049 A 
HETATM   16  C11   D T 601       5.995   1.616  -6.486  1.00 26.89     0.033 A 
HETATM   17  C10   D T 601       5.966   2.661  -7.434  1.00 28.95     0.039 A 
HETATM   18  C09   D T 601       4.768   3.374  -7.656  1.00 30.95     0.069 A 
HETATM   19  C35   D T 601       3.610   3.030  -6.937  1.00 28.80     0.039 A 
HETATM   20  C34   D T 601       3.653   2.004  -5.987  1.00 26.81     0.033 A 
BRANCH  18  21
HETATM   21  O08   D T 601       4.698   4.350  -8.589  1.00 36.09    -0.350 OA
BRANCH  21  22
HETATM   22  C07   D T 601       5.560   5.496  -8.352  1.00 42.63     0.195 C 
BRANCH  22  23
HETATM   23  C06   D T 601       4.972   6.340  -7.178  1.00 46.85     0.143 C 
BRANCH  23  24
HETATM   24  N03   D T 601       5.960   6.619  -6.069  1.00 51.06    -0.411 N 
BRANCH  24  25
HETATM   25  C02   D T 601       6.398   5.536  -5.086  1.00 53.85     0.112 C 
HETATM   26  C01   D T 601       5.312   4.820  -4.218  1.00 52.69     0.026 C 
ENDBRANCH  24  25
BRANCH  24  27
HETATM   27  C04   D T 601       6.590   7.987  -6.060  1.00 47.80     0.112 C 
HETATM   28  C05   D T 601       7.197   8.514  -4.729  1.00 44.89     0.026 C 
ENDBRANCH  24  27
ENDBRANCH  23  24
ENDBRANCH  22  23
ENDBRANCH  21  22
ENDBRANCH  18  21
ENDBRANCH  13  15
ENDBRANCH   1  13
BRANCH   8  29
HETATM   29  C26   D T 601       7.422   1.346   2.385  1.00 21.63     0.023 A 
HETATM   30  C27   D T 601       8.454   0.508   2.891  1.00 22.75     0.046 A 
HETATM   31 CL28   D T 601       9.233  -0.594   1.876  1.00 22.59    -0.083 Cl
HETATM   32  C29   D T 601       8.838   0.536   4.258  1.00 24.08     0.025 A 
HETATM   33  C30   D T 601       8.215   1.450   5.138  1.00 25.63     0.003 A 
HETATM   34  C31   D T 601       7.212   2.300   4.651  1.00 25.41     0.025 A 
HETATM   35  C32   D T 601       6.818   2.249   3.290  1.00 23.77     0.046 A 
HETATM   36 CL33   D T 601       5.596   3.296   2.767  1.00 25.94    -0.083 Cl
ENDBRANCH   8  29
TORSDOF 9
ENDMDL
MODEL 9
REMARK VINA RESULT:    -7.446      7.035     11.195
REMARK INTER + INTRA:         -13.075
REMARK INTER:                 -11.462
REMARK INTRA:                  -1.614
REMARK UNBOUND:                -1.711
REMARK  9 active torsions:
REMARK  status: ('A' for Active; 'I' for Inactive)
REMARK    1  A    between atoms: C02_2  and  N03_3 
REMARK    2  A    between atoms: N03_3  and  C04_4 
REMARK    3  A    between atoms: N03_3  and  C06_6 
REMARK    4  A    between atoms: C06_6  and  C07_7 
REMARK    5  A    between atoms: C07_7  and  O08_8 
REMARK    6  A    between atoms: O08_8  and  C09_9 
REMARK    7  A    between atoms: C12_12  and  N13_13 
REMARK    8  A    between atoms: N13_13  and  C14_14 
REMARK    9  A    between atoms: C21_21  and  C26_26 
ROOT
HETATM    1  C14   D T 601       6.990   9.774  -4.690  1.00 17.92     0.728 A 
HETATM    2  N15   D T 601       7.354   8.502  -4.429  1.00 19.07    -0.044 NA
HETATM    3  C16   D T 601       6.765   7.422  -4.960  1.00 18.16     0.163 A 
HETATM    4  C17   D T 601       5.685   7.628  -5.822  1.00 16.80     0.030 A 
HETATM    5  C18   D T 601       5.276   8.941  -6.064  1.00 18.08     0.151 A 
HETATM    6  N19   D T 601       5.934   9.973  -5.496  1.00 16.91    -0.074 NA
HETATM    7  C20   D T 601       5.025   6.519  -6.389  1.00 17.65     0.034 A 
HETATM    8  C21   D T 601       5.464   5.217  -6.105  1.00 18.53     0.047 A 
HETATM    9  C22   D T 601       6.561   5.069  -5.220  1.00 19.48     0.260 A 
HETATM   10  O23   D T 601       6.882   3.886  -4.978  1.00 21.52    -0.267 OA
HETATM   11  N24   D T 601       7.208   6.157  -4.666  1.00 19.49    -0.301 N 
HETATM   12  C25   D T 601       8.353   6.032  -3.778  1.00 20.07     0.161 C 
ENDROOT
BRANCH   1  13
HETATM   13  N13   D T 601       7.655  10.791  -4.120  1.00 20.14    -0.188 N 
HETATM   14 1H13   D T 601       8.000  11.401  -4.712  1.00 24.16     0.184 HD
BRANCH  13  15
HETATM   15  C12   D T 601       7.904  11.070  -2.794  1.00 24.69     0.049 A 
HETATM   16  C11   D T 601       7.305  12.243  -2.265  1.00 26.89     0.033 A 
HETATM   17  C10   D T 601       7.491  12.595  -0.911  1.00 28.95     0.039 A 
HETATM   18  C09   D T 601       8.263  11.767  -0.070  1.00 30.95     0.069 A 
HETATM   19  C35   D T 601       8.834  10.589  -0.585  1.00 28.80     0.039 A 
HETATM   20  C34   D T 601       8.659  10.258  -1.933  1.00 26.81     0.033 A 
BRANCH  18  21
HETATM   21  O08   D T 601       8.422  12.054   1.242  1.00 36.09    -0.350 OA
BRANCH  21  22
HETATM   22  C07   D T 601       9.791  12.007   1.726  1.00 42.63     0.195 C 
BRANCH  22  23
HETATM   23  C06   D T 601      10.559  13.259   1.198  1.00 46.85     0.143 C 
BRANCH  23  24
HETATM   24  N03   D T 601      11.641  12.936   0.192  1.00 51.06    -0.411 N 
BRANCH  24  25
HETATM   25  C02   D T 601      12.478  11.663   0.288  1.00 53.85     0.112 C 
HETATM   26  C01   D T 601      12.441  10.644  -0.898  1.00 52.69     0.026 C 
ENDBRANCH  24  25
BRANCH  24  27
HETATM   27  C04   D T 601      11.765  13.869  -0.984  1.00 47.80     0.112 C 
HETATM   28  C05   D T 601      10.801  13.675  -2.188  1.00 44.89     0.026 C 
ENDBRANCH  24  27
ENDBRANCH  23  24
ENDBRANCH  22  23
ENDBRANCH  21  22
ENDBRANCH  18  21
ENDBRANCH  13  15
ENDBRANCH   1  13
BRANCH   8  29
HETATM   29  C26   D T 601       4.821   4.076  -6.684  1.00 21.63     0.023 A 
HETATM   30  C27   D T 601       5.205   3.614  -7.974  1.00 22.75     0.046 A 
HETATM   31 CL28   D T 601       6.386   4.436  -8.856  1.00 22.59    -0.083 Cl
HETATM   32  C29   D T 601       4.592   2.484  -8.577  1.00 24.08     0.025 A 
HETATM   33  C30   D T 601       3.604   1.765  -7.867  1.00 25.63     0.003 A 
HETATM   34  C31   D T 601       3.231   2.191  -6.585  1.00 25.41     0.025 A 
HETATM   35  C32   D T 601       3.830   3.335  -5.999  1.00 23.77     0.046 A 
HETATM   36 CL33   D T 601       3.329   3.802  -4.452  1.00 25.94    -0.083 Cl
ENDBRANCH   8  29
TORSDOF 9
ENDMDL
