MODEL 1
REMARK VINA RESULT:    -8.421      0.000      0.000
REMARK INTER + INTRA:         -14.130
REMARK INTER:                 -12.852
REMARK INTRA:                  -1.279
REMARK UNBOUND:                -1.279
REMARK  9 active torsions:
REMARK  status: ('A' for Active; 'I' for Inactive)
REMARK    1  A    between atoms: C02_2  and  N03_3 
REMARK    2  A    between atoms: N03_3  and  C04_4 
REMARK    3  A    between atoms: N03_3  and  C06_6 
REMARK    4  A    between atoms: C06_6  and  C07_7 
REMARK    5  A    between atoms: C07_7  and  O08_8 
REMARK    6  A    between atoms: O08_8  and  C09_9 
REMARK    7  A    between atoms: C12_12  and  N13_13 
REMARK    8  A    between atoms: N13_13  and  C14_14 
REMARK    9  A    between atoms: C21_21  and  C26_26 
ROOT
HETATM    1  C14   D T 601       4.863  -4.771   1.020  1.00 17.92     0.728 A 
HETATM    2  N15   D T 601       4.526  -5.903   1.672  1.00 19.07    -0.044 NA
HETATM    3  C16   D T 601       3.605  -6.777   1.246  1.00 18.16     0.163 A 
HETATM    4  C17   D T 601       2.928  -6.483   0.060  1.00 16.80     0.030 A 
HETATM    5  C18   D T 601       3.241  -5.292  -0.599  1.00 18.08     0.151 A 
HETATM    6  N19   D T 601       4.192  -4.473  -0.106  1.00 16.91    -0.074 NA
HETATM    7  C20   D T 601       1.937  -7.366  -0.414  1.00 17.65     0.034 A 
HETATM    8  C21   D T 601       1.650  -8.545   0.291  1.00 18.53     0.047 A 
HETATM    9  C22   D T 601       2.364  -8.788   1.489  1.00 19.48     0.260 A 
HETATM   10  O23   D T 601       2.038  -9.834   2.090  1.00 21.52    -0.267 OA
HETATM   11  N24   D T 601       3.335  -7.921   1.953  1.00 19.49    -0.301 N 
HETATM   12  C25   D T 601       4.102  -8.164   3.164  1.00 20.07     0.161 C 
ENDROOT
BRANCH   1  13
HETATM   13  N13   D T 601       5.814  -3.965   1.519  1.00 20.14    -0.188 N 
HETATM   14 1H13   D T 601       6.673  -4.233   1.344  1.00 24.16     0.184 HD
BRANCH  13  15
HETATM   15  C12   D T 601       5.710  -2.803   2.252  1.00 24.69     0.049 A 
HETATM   16  C11   D T 601       6.886  -2.016   2.368  1.00 26.89     0.033 A 
HETATM   17  C10   D T 601       6.866  -0.800   3.084  1.00 28.95     0.039 A 
HETATM   18  C09   D T 601       5.665  -0.352   3.675  1.00 30.95     0.069 A 
HETATM   19  C35   D T 601       4.493  -1.117   3.537  1.00 28.80     0.039 A 
HETATM   20  C34   D T 601       4.526  -2.330   2.840  1.00 26.81     0.033 A 
BRANCH  18  21
HETATM   21  O08   D T 601       5.605   0.831   4.328  1.00 36.09    -0.350 OA
BRANCH  21  22
HETATM   22  C07   D T 601       6.749   1.127   5.176  1.00 42.63     0.195 C 
BRANCH  22  23
HETATM   23  C06   D T 601       6.686   2.626   5.606  1.00 46.85     0.143 C 
BRANCH  23  24
HETATM   24  N03   D T 601       5.359   3.037   6.204  1.00 51.06    -0.411 N 
BRANCH  24  25
HETATM   25  C02   D T 601       4.859   2.466   7.528  1.00 53.85     0.112 C 
HETATM   26  C01   D T 601       4.086   1.107   7.521  1.00 52.69     0.026 C 
ENDBRANCH  24  25
BRANCH  24  27
HETATM   27  C04   D T 601       4.616   4.138   5.496  1.00 47.80     0.112 C 
HETATM   28  C05   D T 601       3.703   3.764   4.295  1.00 44.89     0.026 C 
ENDBRANCH  24  27
ENDBRANCH  23  24
ENDBRANCH  22  23
ENDBRANCH  21  22
ENDBRANCH  18  21
ENDBRANCH  13  15
ENDBRANCH   1  13
BRANCH   8  29
HETATM   29  C26   D T 601       0.661  -9.466  -0.182  1.00 21.63     0.023 A 
HETATM   30  C27   D T 601      -0.710  -9.282   0.155  1.00 22.75     0.046 A 
HETATM   31 CL28   D T 601      -1.176  -8.007   1.157  1.00 22.59    -0.083 Cl
HETATM   32  C29   D T 601      -1.717 -10.174  -0.298  1.00 24.08     0.025 A 
HETATM   33  C30   D T 601      -1.367 -11.250  -1.146  1.00 25.63     0.003 A 
HETATM   34  C31   D T 601      -0.025 -11.432  -1.508  1.00 25.41     0.025 A 
HETATM   35  C32   D T 601       0.979 -10.551  -1.031  1.00 23.77     0.046 A 
HETATM   36 CL33   D T 601       2.580 -10.831  -1.498  1.00 25.94    -0.083 Cl
ENDBRANCH   8  29
TORSDOF 9
ENDMDL
MODEL 2
REMARK VINA RESULT:    -8.363      1.981      3.275
REMARK INTER + INTRA:         -14.042
REMARK INTER:                 -12.508
REMARK INTRA:                  -1.534
REMARK UNBOUND:                -1.279
REMARK  9 active torsions:
REMARK  status: ('A' for Active; 'I' for Inactive)
REMARK    1  A    between atoms: C02_2  and  N03_3 
REMARK    2  A    between atoms: N03_3  and  C04_4 
REMARK    3  A    between atoms: N03_3  and  C06_6 
REMARK    4  A    between atoms: C06_6  and  C07_7 
REMARK    5  A    between atoms: C07_7  and  O08_8 
REMARK    6  A    between atoms: O08_8  and  C09_9 
REMARK    7  A    between atoms: C12_12  and  N13_13 
REMARK    8  A    between atoms: N13_13  and  C14_14 
REMARK    9  A    between atoms: C21_21  and  C26_26 
ROOT
HETATM    1  C14   D T 601       4.263  -3.247   2.163  1.00 17.92     0.728 A 
HETATM    2  N15   D T 601       4.112  -3.964   1.031  1.00 19.07    -0.044 NA
HETATM    3  C16   D T 601       3.279  -5.005   0.900  1.00 18.16     0.163 A 
HETATM    4  C17   D T 601       2.537  -5.391   2.018  1.00 16.80     0.030 A 
HETATM    5  C18   D T 601       2.720  -4.681   3.206  1.00 18.08     0.151 A 
HETATM    6  N19   D T 601       3.572  -3.635   3.249  1.00 16.91    -0.074 NA
HETATM    7  C20   D T 601       1.663  -6.492   1.929  1.00 17.65     0.034 A 
HETATM    8  C21   D T 601       1.523  -7.183   0.715  1.00 18.53     0.047 A 
HETATM    9  C22   D T 601       2.304  -6.751  -0.384  1.00 19.48     0.260 A 
HETATM   10  O23   D T 601       2.163  -7.427  -1.425  1.00 21.52    -0.267 OA
HETATM   11  N24   D T 601       3.161  -5.670  -0.295  1.00 19.49    -0.301 N 
HETATM   12  C25   D T 601       3.951  -5.189  -1.417  1.00 20.07     0.161 C 
ENDROOT
BRANCH   1  13
HETATM   13  N13   D T 601       5.113  -2.208   2.192  1.00 20.14    -0.188 N 
HETATM   14 1H13   D T 601       5.691  -2.167   1.481  1.00 24.16     0.184 HD
BRANCH  13  15
HETATM   15  C12   D T 601       5.259  -1.195   3.114  1.00 24.69     0.049 A 
HETATM   16  C11   D T 601       4.169  -0.294   3.249  1.00 26.89     0.033 A 
HETATM   17  C10   D T 601       4.225   0.763   4.183  1.00 28.95     0.039 A 
HETATM   18  C09   D T 601       5.363   0.916   5.003  1.00 30.95     0.069 A 
HETATM   19  C35   D T 601       6.431   0.008   4.890  1.00 28.80     0.039 A 
HETATM   20  C34   D T 601       6.375  -1.026   3.949  1.00 26.81     0.033 A 
BRANCH  18  21
HETATM   21  O08   D T 601       5.425   1.891   5.938  1.00 36.09    -0.350 OA
BRANCH  21  22
HETATM   22  C07   D T 601       4.662   3.091   5.632  1.00 42.63     0.195 C 
BRANCH  22  23
HETATM   23  C06   D T 601       5.651   4.239   5.257  1.00 46.85     0.143 C 
BRANCH  23  24
HETATM   24  N03   D T 601       6.417   3.995   3.976  1.00 51.06    -0.411 N 
BRANCH  24  25
HETATM   25  C02   D T 601       5.715   3.874   2.627  1.00 53.85     0.112 C 
HETATM   26  C01   D T 601       6.123   2.712   1.663  1.00 52.69     0.026 C 
ENDBRANCH  24  25
BRANCH  24  27
HETATM   27  C04   D T 601       7.919   4.008   4.080  1.00 47.80     0.112 C 
HETATM   28  C05   D T 601       8.593   3.168   5.200  1.00 44.89     0.026 C 
ENDBRANCH  24  27
ENDBRANCH  23  24
ENDBRANCH  22  23
ENDBRANCH  21  22
ENDBRANCH  18  21
ENDBRANCH  13  15
ENDBRANCH   1  13
BRANCH   8  29
HETATM   29  C26   D T 601       0.627  -8.293   0.595  1.00 21.63     0.023 A 
HETATM   30  C27   D T 601       0.991  -9.568   1.112  1.00 22.75     0.046 A 
HETATM   31 CL28   D T 601       2.504  -9.797   1.824  1.00 22.59    -0.083 Cl
HETATM   32  C29   D T 601       0.127 -10.690   1.013  1.00 24.08     0.025 A 
HETATM   33  C30   D T 601      -1.151 -10.537   0.430  1.00 25.63     0.003 A 
HETATM   34  C31   D T 601      -1.537  -9.282  -0.063  1.00 25.41     0.025 A 
HETATM   35  C32   D T 601      -0.658  -8.172   0.018  1.00 23.77     0.046 A 
HETATM   36 CL33   D T 601      -1.181  -6.688  -0.602  1.00 25.94    -0.083 Cl
ENDBRANCH   8  29
TORSDOF 9
ENDMDL
MODEL 3
REMARK VINA RESULT:    -8.346      0.133      1.534
REMARK INTER + INTRA:         -14.016
REMARK INTER:                 -12.756
REMARK INTRA:                  -1.260
REMARK UNBOUND:                -1.279
REMARK  9 active torsions:
REMARK  status: ('A' for Active; 'I' for Inactive)
REMARK    1  A    between atoms: C02_2  and  N03_3 
REMARK    2  A    between atoms: N03_3  and  C04_4 
REMARK    3  A    between atoms: N03_3  and  C06_6 
REMARK    4  A    between atoms: C06_6  and  C07_7 
REMARK    5  A    between atoms: C07_7  and  O08_8 
REMARK    6  A    between atoms: O08_8  and  C09_9 
REMARK    7  A    between atoms: C12_12  and  N13_13 
REMARK    8  A    between atoms: N13_13  and  C14_14 
REMARK    9  A    between atoms: C21_21  and  C26_26 
ROOT
HETATM    1  C14   D T 601       4.968  -4.729   0.917  1.00 17.92     0.728 A 
HETATM    2  N15   D T 601       4.608  -5.835   1.599  1.00 19.07    -0.044 NA
HETATM    3  C16   D T 601       3.687  -6.715   1.183  1.00 18.16     0.163 A 
HETATM    4  C17   D T 601       3.036  -6.454  -0.025  1.00 16.80     0.030 A 
HETATM    5  C18   D T 601       3.372  -5.288  -0.715  1.00 18.08     0.151 A 
HETATM    6  N19   D T 601       4.322  -4.461  -0.231  1.00 16.91    -0.074 NA
HETATM    7  C20   D T 601       2.047  -7.343  -0.489  1.00 17.65     0.034 A 
HETATM    8  C21   D T 601       1.734  -8.496   0.248  1.00 18.53     0.047 A 
HETATM    9  C22   D T 601       2.423  -8.707   1.467  1.00 19.48     0.260 A 
HETATM   10  O23   D T 601       2.076  -9.730   2.095  1.00 21.52    -0.267 OA
HETATM   11  N24   D T 601       3.393  -7.834   1.922  1.00 19.49    -0.301 N 
HETATM   12  C25   D T 601       4.134  -8.043   3.155  1.00 20.07     0.161 C 
ENDROOT
BRANCH   1  13
HETATM   13  N13   D T 601       5.916  -3.915   1.409  1.00 20.14    -0.188 N 
HETATM   14 1H13   D T 601       6.776  -4.174   1.223  1.00 24.16     0.184 HD
BRANCH  13  15
HETATM   15  C12   D T 601       5.809  -2.757   2.147  1.00 24.69     0.049 A 
HETATM   16  C11   D T 601       6.973  -1.950   2.237  1.00 26.89     0.033 A 
HETATM   17  C10   D T 601       6.949  -0.735   2.957  1.00 28.95     0.039 A 
HETATM   18  C09   D T 601       5.754  -0.310   3.577  1.00 30.95     0.069 A 
HETATM   19  C35   D T 601       4.593  -1.095   3.464  1.00 28.80     0.039 A 
HETATM   20  C34   D T 601       4.631  -2.306   2.764  1.00 26.81     0.033 A 
BRANCH  18  21
HETATM   21  O08   D T 601       5.689   0.870   4.235  1.00 36.09    -0.350 OA
BRANCH  21  22
HETATM   22  C07   D T 601       6.782   1.123   5.160  1.00 42.63     0.195 C 
BRANCH  22  23
HETATM   23  C06   D T 601       6.714   2.610   5.630  1.00 46.85     0.143 C 
BRANCH  23  24
HETATM   24  N03   D T 601       5.366   3.018   6.181  1.00 51.06    -0.411 N 
BRANCH  24  25
HETATM   25  C02   D T 601       4.818   2.439   7.482  1.00 53.85     0.112 C 
HETATM   26  C01   D T 601       4.047   1.079   7.440  1.00 52.69     0.026 C 
ENDBRANCH  24  25
BRANCH  24  27
HETATM   27  C04   D T 601       4.648   4.121   5.451  1.00 47.80     0.112 C 
HETATM   28  C05   D T 601       3.702   3.743   4.279  1.00 44.89     0.026 C 
ENDBRANCH  24  27
ENDBRANCH  23  24
ENDBRANCH  22  23
ENDBRANCH  21  22
ENDBRANCH  18  21
ENDBRANCH  13  15
ENDBRANCH   1  13
BRANCH   8  29
HETATM   29  C26   D T 601       0.746  -9.424  -0.214  1.00 21.63     0.023 A 
HETATM   30  C27   D T 601       1.130 -10.548  -0.998  1.00 22.75     0.046 A 
HETATM   31 CL28   D T 601       2.745 -10.769  -1.437  1.00 22.59    -0.083 Cl
HETATM   32  C29   D T 601       0.178 -11.489  -1.471  1.00 24.08     0.025 A 
HETATM   33  C30   D T 601      -1.183 -11.343  -1.118  1.00 25.63     0.003 A 
HETATM   34  C31   D T 601      -1.575 -10.255  -0.326  1.00 25.41     0.025 A 
HETATM   35  C32   D T 601      -0.622  -9.305   0.122  1.00 23.77     0.046 A 
HETATM   36 CL33   D T 601      -1.161  -8.011   1.069  1.00 25.94    -0.083 Cl
ENDBRANCH   8  29
TORSDOF 9
ENDMDL
MODEL 4
REMARK VINA RESULT:    -8.324      1.997      2.950
REMARK INTER + INTRA:         -13.982
REMARK INTER:                 -12.432
REMARK INTRA:                  -1.550
REMARK UNBOUND:                -1.279
REMARK  9 active torsions:
REMARK  status: ('A' for Active; 'I' for Inactive)
REMARK    1  A    between atoms: C02_2  and  N03_3 
REMARK    2  A    between atoms: N03_3  and  C04_4 
REMARK    3  A    between atoms: N03_3  and  C06_6 
REMARK    4  A    between atoms: C06_6  and  C07_7 
REMARK    5  A    between atoms: C07_7  and  O08_8 
REMARK    6  A    between atoms: O08_8  and  C09_9 
REMARK    7  A    between atoms: C12_12  and  N13_13 
REMARK    8  A    between atoms: N13_13  and  C14_14 
REMARK    9  A    between atoms: C21_21  and  C26_26 
ROOT
HETATM    1  C14   D T 601       4.204  -3.216   2.286  1.00 17.92     0.728 A 
HETATM    2  N15   D T 601       4.072  -3.943   1.158  1.00 19.07    -0.044 NA
HETATM    3  C16   D T 601       3.245  -4.988   1.023  1.00 18.16     0.163 A 
HETATM    4  C17   D T 601       2.487  -5.367   2.134  1.00 16.80     0.030 A 
HETATM    5  C18   D T 601       2.649  -4.646   3.318  1.00 18.08     0.151 A 
HETATM    6  N19   D T 601       3.497  -3.597   3.365  1.00 16.91    -0.074 NA
HETATM    7  C20   D T 601       1.618  -6.472   2.040  1.00 17.65     0.034 A 
HETATM    8  C21   D T 601       1.499  -7.174   0.831  1.00 18.53     0.047 A 
HETATM    9  C22   D T 601       2.295  -6.748  -0.260  1.00 19.48     0.260 A 
HETATM   10  O23   D T 601       2.172  -7.434  -1.298  1.00 21.52    -0.267 OA
HETATM   11  N24   D T 601       3.147  -5.664  -0.167  1.00 19.49    -0.301 N 
HETATM   12  C25   D T 601       3.952  -5.190  -1.282  1.00 20.07     0.161 C 
ENDROOT
BRANCH   1  13
HETATM   13  N13   D T 601       5.049  -2.174   2.319  1.00 20.14    -0.188 N 
HETATM   14 1H13   D T 601       5.657  -2.153   1.632  1.00 24.16     0.184 HD
BRANCH  13  15
HETATM   15  C12   D T 601       5.154  -1.133   3.215  1.00 24.69     0.049 A 
HETATM   16  C11   D T 601       4.110  -0.170   3.198  1.00 26.89     0.033 A 
HETATM   17  C10   D T 601       4.127   0.920   4.094  1.00 28.95     0.039 A 
HETATM   18  C09   D T 601       5.178   1.047   5.027  1.00 30.95     0.069 A 
HETATM   19  C35   D T 601       6.198   0.079   5.064  1.00 28.80     0.039 A 
HETATM   20  C34   D T 601       6.183  -0.989   4.160  1.00 26.81     0.033 A 
BRANCH  18  21
HETATM   21  O08   D T 601       5.196   2.055   5.928  1.00 36.09    -0.350 OA
BRANCH  21  22
HETATM   22  C07   D T 601       4.538   3.279   5.499  1.00 42.63     0.195 C 
BRANCH  22  23
HETATM   23  C06   D T 601       5.624   4.354   5.181  1.00 46.85     0.143 C 
BRANCH  23  24
HETATM   24  N03   D T 601       6.450   4.047   3.953  1.00 51.06    -0.411 N 
BRANCH  24  25
HETATM   25  C02   D T 601       7.938   3.718   4.042  1.00 53.85     0.112 C 
HETATM   26  C01   D T 601       8.503   3.130   5.376  1.00 52.69     0.026 C 
ENDBRANCH  24  25
BRANCH  24  27
HETATM   27  C04   D T 601       5.704   3.952   2.649  1.00 47.80     0.112 C 
HETATM   28  C05   D T 601       6.088   2.821   1.655  1.00 44.89     0.026 C 
ENDBRANCH  24  27
ENDBRANCH  23  24
ENDBRANCH  22  23
ENDBRANCH  21  22
ENDBRANCH  18  21
ENDBRANCH  13  15
ENDBRANCH   1  13
BRANCH   8  29
HETATM   29  C26   D T 601       0.608  -8.288   0.707  1.00 21.63     0.023 A 
HETATM   30  C27   D T 601      -0.656  -8.128   0.074  1.00 22.75     0.046 A 
HETATM   31 CL28   D T 601      -1.141  -6.612  -0.490  1.00 22.59    -0.083 Cl
HETATM   32  C29   D T 601      -1.563  -9.211  -0.070  1.00 24.08     0.025 A 
HETATM   33  C30   D T 601      -1.191 -10.497   0.382  1.00 25.63     0.003 A 
HETATM   34  C31   D T 601       0.061 -10.679   0.987  1.00 25.41     0.025 A 
HETATM   35  C32   D T 601       0.951  -9.586   1.148  1.00 23.77     0.046 A 
HETATM   36 CL33   D T 601       2.443  -9.871   1.893  1.00 25.94    -0.083 Cl
ENDBRANCH   8  29
TORSDOF 9
ENDMDL
MODEL 5
REMARK VINA RESULT:    -8.275      0.936      1.754
REMARK INTER + INTRA:         -13.907
REMARK INTER:                 -12.415
REMARK INTRA:                  -1.492
REMARK UNBOUND:                -1.279
REMARK  9 active torsions:
REMARK  status: ('A' for Active; 'I' for Inactive)
REMARK    1  A    between atoms: C02_2  and  N03_3 
REMARK    2  A    between atoms: N03_3  and  C04_4 
REMARK    3  A    between atoms: N03_3  and  C06_6 
REMARK    4  A    between atoms: C06_6  and  C07_7 
REMARK    5  A    between atoms: C07_7  and  O08_8 
REMARK    6  A    between atoms: O08_8  and  C09_9 
REMARK    7  A    between atoms: C12_12  and  N13_13 
REMARK    8  A    between atoms: N13_13  and  C14_14 
REMARK    9  A    between atoms: C21_21  and  C26_26 
ROOT
HETATM    1  C14   D T 601       4.436  -4.124   1.187  1.00 17.92     0.728 A 
HETATM    2  N15   D T 601       4.278  -5.301   1.827  1.00 19.07    -0.044 NA
HETATM    3  C16   D T 601       3.469  -6.285   1.413  1.00 18.16     0.163 A 
HETATM    4  C17   D T 601       2.716  -6.067   0.256  1.00 16.80     0.030 A 
HETATM    5  C18   D T 601       2.842  -4.834  -0.387  1.00 18.08     0.151 A 
HETATM    6  N19   D T 601       3.692  -3.901   0.090  1.00 16.91    -0.074 NA
HETATM    7  C20   D T 601       1.837  -7.067  -0.203  1.00 17.65     0.034 A 
HETATM    8  C21   D T 601       1.736  -8.285   0.486  1.00 18.53     0.047 A 
HETATM    9  C22   D T 601       2.519  -8.450   1.655  1.00 19.48     0.260 A 
HETATM   10  O23   D T 601       2.359  -9.540   2.245  1.00 21.52    -0.267 OA
HETATM   11  N24   D T 601       3.381  -7.467   2.104  1.00 19.49    -0.301 N 
HETATM   12  C25   D T 601       4.216  -7.623   3.285  1.00 20.07     0.161 C 
ENDROOT
BRANCH   1  13
HETATM   13  N13   D T 601       5.287  -3.206   1.672  1.00 20.14    -0.188 N 
HETATM   14 1H13   D T 601       5.966  -2.974   1.100  1.00 24.16     0.184 HD
BRANCH  13  15
HETATM   15  C12   D T 601       5.307  -2.554   2.885  1.00 24.69     0.049 A 
HETATM   16  C11   D T 601       4.505  -1.387   2.995  1.00 26.89     0.033 A 
HETATM   17  C10   D T 601       4.450  -0.667   4.208  1.00 28.95     0.039 A 
HETATM   18  C09   D T 601       5.182  -1.119   5.327  1.00 30.95     0.069 A 
HETATM   19  C35   D T 601       5.955  -2.290   5.227  1.00 28.80     0.039 A 
HETATM   20  C34   D T 601       6.017  -2.987   4.016  1.00 26.81     0.033 A 
BRANCH  18  21
HETATM   21  O08   D T 601       5.113  -0.475   6.514  1.00 36.09    -0.350 OA
BRANCH  21  22
HETATM   22  C07   D T 601       4.144   0.607   6.575  1.00 42.63     0.195 C 
BRANCH  22  23
HETATM   23  C06   D T 601       4.835   1.874   7.171  1.00 46.85     0.143 C 
BRANCH  23  24
HETATM   24  N03   D T 601       5.368   2.830   6.127  1.00 51.06    -0.411 N 
BRANCH  24  25
HETATM   25  C02   D T 601       4.460   3.819   5.402  1.00 53.85     0.112 C 
HETATM   26  C01   D T 601       3.921   3.450   3.982  1.00 52.69     0.026 C 
ENDBRANCH  24  25
BRANCH  24  27
HETATM   27  C04   D T 601       6.860   2.849   5.933  1.00 47.80     0.112 C 
HETATM   28  C05   D T 601       7.523   1.678   5.156  1.00 44.89     0.026 C 
ENDBRANCH  24  27
ENDBRANCH  23  24
ENDBRANCH  22  23
ENDBRANCH  21  22
ENDBRANCH  18  21
ENDBRANCH  13  15
ENDBRANCH   1  13
BRANCH   8  29
HETATM   29  C26   D T 601       0.864  -9.325   0.028  1.00 21.63     0.023 A 
HETATM   30  C27   D T 601      -0.529  -9.268   0.311  1.00 22.75     0.046 A 
HETATM   31 CL28   D T 601      -1.160  -8.004   1.234  1.00 22.59    -0.083 Cl
HETATM   32  C29   D T 601      -1.423 -10.279  -0.130  1.00 24.08     0.025 A 
HETATM   33  C30   D T 601      -0.935 -11.350  -0.913  1.00 25.63     0.003 A 
HETATM   34  C31   D T 601       0.432 -11.409  -1.222  1.00 25.41     0.025 A 
HETATM   35  C32   D T 601       1.322 -10.408  -0.756  1.00 23.77     0.046 A 
HETATM   36 CL33   D T 601       2.960 -10.542  -1.158  1.00 25.94    -0.083 Cl
ENDBRANCH   8  29
TORSDOF 9
ENDMDL
MODEL 6
REMARK VINA RESULT:    -8.171      0.935      2.252
REMARK INTER + INTRA:         -13.748
REMARK INTER:                 -12.267
REMARK INTRA:                  -1.481
REMARK UNBOUND:                -1.279
REMARK  9 active torsions:
REMARK  status: ('A' for Active; 'I' for Inactive)
REMARK    1  A    between atoms: C02_2  and  N03_3 
REMARK    2  A    between atoms: N03_3  and  C04_4 
REMARK    3  A    between atoms: N03_3  and  C06_6 
REMARK    4  A    between atoms: C06_6  and  C07_7 
REMARK    5  A    between atoms: C07_7  and  O08_8 
REMARK    6  A    between atoms: O08_8  and  C09_9 
REMARK    7  A    between atoms: C12_12  and  N13_13 
REMARK    8  A    between atoms: N13_13  and  C14_14 
REMARK    9  A    between atoms: C21_21  and  C26_26 
ROOT
HETATM    1  C14   D T 601       4.487  -4.145   1.346  1.00 17.92     0.728 A 
HETATM    2  N15   D T 601       4.302  -5.349   1.924  1.00 19.07    -0.044 NA
HETATM    3  C16   D T 601       3.467  -6.289   1.463  1.00 18.16     0.163 A 
HETATM    4  C17   D T 601       2.717  -5.993   0.323  1.00 16.80     0.030 A 
HETATM    5  C18   D T 601       2.871  -4.732  -0.256  1.00 18.08     0.151 A 
HETATM    6  N19   D T 601       3.745  -3.846   0.266  1.00 16.91    -0.074 NA
HETATM    7  C20   D T 601       1.812  -6.946  -0.184  1.00 17.65     0.034 A 
HETATM    8  C21   D T 601       1.683  -8.196   0.441  1.00 18.53     0.047 A 
HETATM    9  C22   D T 601       2.466  -8.440   1.596  1.00 19.48     0.260 A 
HETATM   10  O23   D T 601       2.280  -9.555   2.129  1.00 21.52    -0.267 OA
HETATM   11  N24   D T 601       3.352  -7.504   2.092  1.00 19.49    -0.301 N 
HETATM   12  C25   D T 601       4.187  -7.742   3.259  1.00 20.07     0.161 C 
ENDROOT
BRANCH   1  13
HETATM   13  N13   D T 601       5.361  -3.273   1.874  1.00 20.14    -0.188 N 
HETATM   14 1H13   D T 601       6.146  -3.188   1.407  1.00 24.16     0.184 HD
BRANCH  13  15
HETATM   15  C12   D T 601       5.274  -2.487   3.002  1.00 24.69     0.049 A 
HETATM   16  C11   D T 601       6.065  -2.878   4.114  1.00 26.89     0.033 A 
HETATM   17  C10   D T 601       6.052  -2.120   5.305  1.00 28.95     0.039 A 
HETATM   18  C09   D T 601       5.260  -0.954   5.386  1.00 30.95     0.069 A 
HETATM   19  C35   D T 601       4.498  -0.550   4.275  1.00 28.80     0.039 A 
HETATM   20  C34   D T 601       4.504  -1.318   3.106  1.00 26.81     0.033 A 
BRANCH  18  21
HETATM   21  O08   D T 601       5.263  -0.183   6.498  1.00 36.09    -0.350 OA
BRANCH  21  22
HETATM   22  C07   D T 601       4.234   0.844   6.540  1.00 42.63     0.195 C 
BRANCH  22  23
HETATM   23  C06   D T 601       4.886   2.198   6.962  1.00 46.85     0.143 C 
BRANCH  23  24
HETATM   24  N03   D T 601       5.588   2.918   5.833  1.00 51.06    -0.411 N 
BRANCH  24  25
HETATM   25  C02   D T 601       4.895   4.007   5.018  1.00 53.85     0.112 C 
HETATM   26  C01   D T 601       3.601   3.645   4.219  1.00 52.69     0.026 C 
ENDBRANCH  24  25
BRANCH  24  27
HETATM   27  C04   D T 601       7.047   2.603   5.639  1.00 47.80     0.112 C 
HETATM   28  C05   D T 601       7.479   1.861   4.344  1.00 44.89     0.026 C 
ENDBRANCH  24  27
ENDBRANCH  23  24
ENDBRANCH  22  23
ENDBRANCH  21  22
ENDBRANCH  18  21
ENDBRANCH  13  15
ENDBRANCH   1  13
BRANCH   8  29
HETATM   29  C26   D T 601       0.784  -9.188  -0.067  1.00 21.63     0.023 A 
HETATM   30  C27   D T 601       1.273 -10.248  -0.881  1.00 22.75     0.046 A 
HETATM   31 CL28   D T 601       2.907 -10.317  -1.300  1.00 22.59    -0.083 Cl
HETATM   32  C29   D T 601       0.412 -11.250  -1.400  1.00 24.08     0.025 A 
HETATM   33  C30   D T 601      -0.961 -11.232  -1.066  1.00 25.63     0.003 A 
HETATM   34  C31   D T 601      -1.456 -10.208  -0.245  1.00 25.41     0.025 A 
HETATM   35  C32   D T 601      -0.593  -9.197   0.249  1.00 23.77     0.046 A 
HETATM   36 CL33   D T 601      -1.254  -7.987   1.229  1.00 25.94    -0.083 Cl
ENDBRANCH   8  29
TORSDOF 9
ENDMDL
MODEL 7
REMARK VINA RESULT:    -7.946      3.490     10.983
REMARK INTER + INTRA:         -13.405
REMARK INTER:                 -11.978
REMARK INTRA:                  -1.427
REMARK UNBOUND:                -1.279
REMARK  9 active torsions:
REMARK  status: ('A' for Active; 'I' for Inactive)
REMARK    1  A    between atoms: C02_2  and  N03_3 
REMARK    2  A    between atoms: N03_3  and  C04_4 
REMARK    3  A    between atoms: N03_3  and  C06_6 
REMARK    4  A    between atoms: C06_6  and  C07_7 
REMARK    5  A    between atoms: C07_7  and  O08_8 
REMARK    6  A    between atoms: O08_8  and  C09_9 
REMARK    7  A    between atoms: C12_12  and  N13_13 
REMARK    8  A    between atoms: N13_13  and  C14_14 
REMARK    9  A    between atoms: C21_21  and  C26_26 
ROOT
HETATM    1  C14   D T 601       5.299  -4.014   1.467  1.00 17.92     0.728 A 
HETATM    2  N15   D T 601       6.247  -3.428   2.227  1.00 19.07    -0.044 NA
HETATM    3  C16   D T 601       6.036  -2.365   3.014  1.00 18.16     0.163 A 
HETATM    4  C17   D T 601       4.755  -1.808   3.028  1.00 16.80     0.030 A 
HETATM    5  C18   D T 601       3.780  -2.382   2.210  1.00 18.08     0.151 A 
HETATM    6  N19   D T 601       4.073  -3.461   1.457  1.00 16.91    -0.074 NA
HETATM    7  C20   D T 601       4.496  -0.677   3.827  1.00 17.65     0.034 A 
HETATM    8  C21   D T 601       5.514  -0.128   4.621  1.00 18.53     0.047 A 
HETATM    9  C22   D T 601       6.794  -0.731   4.564  1.00 19.48     0.260 A 
HETATM   10  O23   D T 601       7.667  -0.176   5.265  1.00 21.52    -0.267 OA
HETATM   11  N24   D T 601       7.047  -1.840   3.780  1.00 19.49    -0.301 N 
HETATM   12  C25   D T 601       8.345  -2.495   3.726  1.00 20.07     0.161 C 
ENDROOT
BRANCH   1  13
HETATM   13  N13   D T 601       5.604  -5.089   0.723  1.00 20.14    -0.188 N 
HETATM   14 1H13   D T 601       6.487  -5.149   0.481  1.00 24.16     0.184 HD
BRANCH  13  15
HETATM   15  C12   D T 601       4.808  -6.115   0.262  1.00 24.69     0.049 A 
HETATM   16  C11   D T 601       4.318  -7.026   1.235  1.00 26.89     0.033 A 
HETATM   17  C10   D T 601       3.480  -8.097   0.855  1.00 28.95     0.039 A 
HETATM   18  C09   D T 601       3.111  -8.255  -0.499  1.00 30.95     0.069 A 
HETATM   19  C35   D T 601       3.574  -7.336  -1.458  1.00 28.80     0.039 A 
HETATM   20  C34   D T 601       4.418  -6.289  -1.075  1.00 26.81     0.033 A 
BRANCH  18  21
HETATM   21  O08   D T 601       2.274  -9.244  -0.884  1.00 36.09    -0.350 OA
BRANCH  21  22
HETATM   22  C07   D T 601       1.547  -9.894   0.194  1.00 42.63     0.195 C 
BRANCH  22  23
HETATM   23  C06   D T 601       0.036  -9.975  -0.189  1.00 46.85     0.143 C 
BRANCH  23  24
HETATM   24  N03   D T 601      -0.756  -8.740   0.175  1.00 51.06    -0.411 N 
BRANCH  24  25
HETATM   25  C02   D T 601      -2.168  -8.502  -0.354  1.00 53.85     0.112 C 
HETATM   26  C01   D T 601      -2.847  -9.610  -1.223  1.00 52.69     0.026 C 
ENDBRANCH  24  25
BRANCH  24  27
HETATM   27  C04   D T 601      -0.135  -7.819   1.191  1.00 47.80     0.112 C 
HETATM   28  C05   D T 601       0.172  -6.354   0.775  1.00 44.89     0.026 C 
ENDBRANCH  24  27
ENDBRANCH  23  24
ENDBRANCH  22  23
ENDBRANCH  21  22
ENDBRANCH  18  21
ENDBRANCH  13  15
ENDBRANCH   1  13
BRANCH   8  29
HETATM   29  C26   D T 601       5.268   1.010   5.456  1.00 21.63     0.023 A 
HETATM   30  C27   D T 601       4.747   0.836   6.769  1.00 22.75     0.046 A 
HETATM   31 CL28   D T 601       4.363  -0.707   7.336  1.00 22.59    -0.083 Cl
HETATM   32  C29   D T 601       4.494   1.940   7.625  1.00 24.08     0.025 A 
HETATM   33  C30   D T 601       4.809   3.247   7.189  1.00 25.63     0.003 A 
HETATM   34  C31   D T 601       5.346   3.435   5.907  1.00 25.41     0.025 A 
HETATM   35  C32   D T 601       5.573   2.329   5.050  1.00 23.77     0.046 A 
HETATM   36 CL33   D T 601       6.216   2.624   3.513  1.00 25.94    -0.083 Cl
ENDBRANCH   8  29
TORSDOF 9
ENDMDL
MODEL 8
REMARK VINA RESULT:    -7.770      3.520     11.636
REMARK INTER + INTRA:         -13.137
REMARK INTER:                 -11.917
REMARK INTRA:                  -1.220
REMARK UNBOUND:                -1.279
REMARK  9 active torsions:
REMARK  status: ('A' for Active; 'I' for Inactive)
REMARK    1  A    between atoms: C02_2  and  N03_3 
REMARK    2  A    between atoms: N03_3  and  C04_4 
REMARK    3  A    between atoms: N03_3  and  C06_6 
REMARK    4  A    between atoms: C06_6  and  C07_7 
REMARK    5  A    between atoms: C07_7  and  O08_8 
REMARK    6  A    between atoms: O08_8  and  C09_9 
REMARK    7  A    between atoms: C12_12  and  N13_13 
REMARK    8  A    between atoms: N13_13  and  C14_14 
REMARK    9  A    between atoms: C21_21  and  C26_26 
ROOT
HETATM    1  C14   D T 601       5.181  -4.455   1.749  1.00 17.92     0.728 A 
HETATM    2  N15   D T 601       6.140  -3.813   2.446  1.00 19.07    -0.044 NA
HETATM    3  C16   D T 601       5.960  -2.649   3.085  1.00 18.16     0.163 A 
HETATM    4  C17   D T 601       4.703  -2.046   3.001  1.00 16.80     0.030 A 
HETATM    5  C18   D T 601       3.718  -2.684   2.245  1.00 18.08     0.151 A 
HETATM    6  N19   D T 601       3.979  -3.863   1.642  1.00 16.91    -0.074 NA
HETATM    7  C20   D T 601       4.477  -0.812   3.642  1.00 17.65     0.034 A 
HETATM    8  C21   D T 601       5.504  -0.204   4.380  1.00 18.53     0.047 A 
HETATM    9  C22   D T 601       6.759  -0.858   4.427  1.00 19.48     0.260 A 
HETATM   10  O23   D T 601       7.643  -0.250   5.068  1.00 21.52    -0.267 OA
HETATM   11  N24   D T 601       6.980  -2.068   3.797  1.00 19.49    -0.301 N 
HETATM   12  C25   D T 601       8.251  -2.773   3.855  1.00 20.07     0.161 C 
ENDROOT
BRANCH   1  13
HETATM   13  N13   D T 601       5.454  -5.628   1.156  1.00 20.14    -0.188 N 
HETATM   14 1H13   D T 601       6.346  -5.789   1.018  1.00 24.16     0.184 HD
BRANCH  13  15
HETATM   15  C12   D T 601       4.613  -6.629   0.720  1.00 24.69     0.049 A 
HETATM   16  C11   D T 601       4.333  -6.664  -0.672  1.00 26.89     0.033 A 
HETATM   17  C10   D T 601       3.497  -7.667  -1.210  1.00 28.95     0.039 A 
HETATM   18  C09   D T 601       2.949  -8.653  -0.362  1.00 30.95     0.069 A 
HETATM   19  C35   D T 601       3.249  -8.636   1.013  1.00 28.80     0.039 A 
HETATM   20  C34   D T 601       4.064  -7.628   1.539  1.00 26.81     0.033 A 
BRANCH  18  21
HETATM   21  O08   D T 601       2.183  -9.652  -0.855  1.00 36.09    -0.350 OA
BRANCH  21  22
HETATM   22  C07   D T 601       2.862 -10.926  -1.027  1.00 42.63     0.195 C 
BRANCH  22  23
HETATM   23  C06   D T 601       2.172 -11.995  -0.122  1.00 46.85     0.143 C 
BRANCH  23  24
HETATM   24  N03   D T 601       0.790 -12.392  -0.588  1.00 51.06    -0.411 N 
BRANCH  24  25
HETATM   25  C02   D T 601      -0.457 -12.092   0.238  1.00 53.85     0.112 C 
HETATM   26  C01   D T 601      -0.558 -10.722   0.985  1.00 52.69     0.026 C 
ENDBRANCH  24  25
BRANCH  24  27
HETATM   27  C04   D T 601       0.691 -12.982  -1.970  1.00 47.80     0.112 C 
HETATM   28  C05   D T 601       0.246 -12.062  -3.139  1.00 44.89     0.026 C 
ENDBRANCH  24  27
ENDBRANCH  23  24
ENDBRANCH  22  23
ENDBRANCH  21  22
ENDBRANCH  18  21
ENDBRANCH  13  15
ENDBRANCH   1  13
BRANCH   8  29
HETATM   29  C26   D T 601       5.292   1.040   5.056  1.00 21.63     0.023 A 
HETATM   30  C27   D T 601       4.836   1.055   6.404  1.00 22.75     0.046 A 
HETATM   31 CL28   D T 601       4.490  -0.391   7.202  1.00 22.59    -0.083 Cl
HETATM   32  C29   D T 601       4.618   2.270   7.106  1.00 24.08     0.025 A 
HETATM   33  C30   D T 601       4.903   3.502   6.474  1.00 25.63     0.003 A 
HETATM   34  C31   D T 601       5.376   3.505   5.154  1.00 25.41     0.025 A 
HETATM   35  C32   D T 601       5.568   2.288   4.452  1.00 23.77     0.046 A 
HETATM   36 CL33   D T 601       6.134   2.362   2.859  1.00 25.94    -0.083 Cl
ENDBRANCH   8  29
TORSDOF 9
ENDMDL
MODEL 9
REMARK VINA RESULT:    -7.566      1.209      1.971
REMARK INTER + INTRA:         -12.826
REMARK INTER:                 -11.694
REMARK INTRA:                  -1.132
REMARK UNBOUND:                -1.279
REMARK  9 active torsions:
REMARK  status: ('A' for Active; 'I' for Inactive)
REMARK    1  A    between atoms: C02_2  and  N03_3 
REMARK    2  A    between atoms: N03_3  and  C04_4 
REMARK    3  A    between atoms: N03_3  and  C06_6 
REMARK    4  A    between atoms: C06_6  and  C07_7 
REMARK    5  A    between atoms: C07_7  and  O08_8 
REMARK    6  A    between atoms: O08_8  and  C09_9 
REMARK    7  A    between atoms: C12_12  and  N13_13 
REMARK    8  A    between atoms: N13_13  and  C14_14 
REMARK    9  A    between atoms: C21_21  and  C26_26 
ROOT
HETATM    1  C14   D T 601       5.883  -5.437   0.278  1.00 17.92     0.728 A 
HETATM    2  N15   D T 601       5.375  -6.378   1.099  1.00 19.07    -0.044 NA
HETATM    3  C16   D T 601       4.310  -7.138   0.812  1.00 18.16     0.163 A 
HETATM    4  C17   D T 601       3.666  -6.923  -0.408  1.00 16.80     0.030 A 
HETATM    5  C18   D T 601       4.160  -5.920  -1.245  1.00 18.08     0.151 A 
HETATM    6  N19   D T 601       5.247  -5.208  -0.884  1.00 16.91    -0.074 NA
HETATM    7  C20   D T 601       2.530  -7.687  -0.742  1.00 17.65     0.034 A 
HETATM    8  C21   D T 601       2.064  -8.675   0.139  1.00 18.53     0.047 A 
HETATM    9  C22   D T 601       2.753  -8.847   1.364  1.00 19.48     0.260 A 
HETATM   10  O23   D T 601       2.270  -9.715   2.121  1.00 21.52    -0.267 OA
HETATM   11  N24   D T 601       3.867  -8.096   1.689  1.00 19.49    -0.301 N 
HETATM   12  C25   D T 601       4.609  -8.273   2.928  1.00 20.07     0.161 C 
ENDROOT
BRANCH   1  13
HETATM   13  N13   D T 601       6.967  -4.736   0.649  1.00 20.14    -0.188 N 
HETATM   14 1H13   D T 601       7.703  -4.860   0.116  1.00 24.16     0.184 HD
BRANCH  13  15
HETATM   15  C12   D T 601       7.154  -3.862   1.697  1.00 24.69     0.049 A 
HETATM   16  C11   D T 601       6.185  -2.836   1.852  1.00 26.89     0.033 A 
HETATM   17  C10   D T 601       6.287  -1.908   2.911  1.00 28.95     0.039 A 
HETATM   18  C09   D T 601       7.351  -2.010   3.834  1.00 30.95     0.069 A 
HETATM   19  C35   D T 601       8.295  -3.043   3.697  1.00 28.80     0.039 A 
HETATM   20  C34   D T 601       8.195  -3.947   2.635  1.00 26.81     0.033 A 
BRANCH  18  21
HETATM   21  O08   D T 601       7.449  -1.163   4.883  1.00 36.09    -0.350 OA
BRANCH  21  22
HETATM   22  C07   D T 601       6.731   0.094   4.733  1.00 42.63     0.195 C 
BRANCH  22  23
HETATM   23  C06   D T 601       5.609   0.169   5.816  1.00 46.85     0.143 C 
BRANCH  23  24
HETATM   24  N03   D T 601       5.089   1.567   6.064  1.00 51.06    -0.411 N 
BRANCH  24  25
HETATM   25  C02   D T 601       5.049   2.620   4.960  1.00 53.85     0.112 C 
HETATM   26  C01   D T 601       5.783   3.982   5.187  1.00 52.69     0.026 C 
ENDBRANCH  24  25
BRANCH  24  27
HETATM   27  C04   D T 601       4.490   1.830   7.419  1.00 47.80     0.112 C 
HETATM   28  C05   D T 601       3.702   0.687   8.117  1.00 44.89     0.026 C 
ENDBRANCH  24  27
ENDBRANCH  23  24
ENDBRANCH  22  23
ENDBRANCH  21  22
ENDBRANCH  18  21
ENDBRANCH  13  15
ENDBRANCH   1  13
BRANCH   8  29
HETATM   29  C26   D T 601       0.923  -9.478  -0.187  1.00 21.63     0.023 A 
HETATM   30  C27   D T 601      -0.380  -9.064   0.208  1.00 22.75     0.046 A 
HETATM   31 CL28   D T 601      -0.590  -7.652   1.109  1.00 22.59    -0.083 Cl
HETATM   32  C29   D T 601      -1.533  -9.833  -0.100  1.00 24.08     0.025 A 
HETATM   33  C30   D T 601      -1.400 -11.017  -0.859  1.00 25.63     0.003 A 
HETATM   34  C31   D T 601      -0.126 -11.427  -1.277  1.00 25.41     0.025 A 
HETATM   35  C32   D T 601       1.023 -10.667  -0.944  1.00 23.77     0.046 A 
HETATM   36 CL33   D T 601       2.532 -11.220  -1.473  1.00 25.94    -0.083 Cl
ENDBRANCH   8  29
TORSDOF 9
ENDMDL
