MODEL 1
REMARK VINA RESULT:    -7.243      0.000      0.000
REMARK INTER + INTRA:         -12.551
REMARK INTER:                 -11.054
REMARK INTRA:                  -1.497
REMARK UNBOUND:                -1.497
REMARK  9 active torsions:
REMARK  status: ('A' for Active; 'I' for Inactive)
REMARK    1  A    between atoms: C02_2  and  N03_3 
REMARK    2  A    between atoms: N03_3  and  C04_4 
REMARK    3  A    between atoms: N03_3  and  C06_6 
REMARK    4  A    between atoms: C06_6  and  C07_7 
REMARK    5  A    between atoms: C07_7  and  O08_8 
REMARK    6  A    between atoms: O08_8  and  C09_9 
REMARK    7  A    between atoms: C12_12  and  N13_13 
REMARK    8  A    between atoms: N13_13  and  C14_14 
REMARK    9  A    between atoms: C21_21  and  C26_26 
ROOT
HETATM    1  C14   D T 601      -6.397  -2.928   8.074  1.00 17.92     0.728 A 
HETATM    2  N15   D T 601      -6.912  -4.170   7.971  1.00 19.07    -0.044 NA
HETATM    3  C16   D T 601      -6.195  -5.298   8.071  1.00 18.16     0.163 A 
HETATM    4  C17   D T 601      -4.817  -5.179   8.267  1.00 16.80     0.030 A 
HETATM    5  C18   D T 601      -4.270  -3.896   8.331  1.00 18.08     0.151 A 
HETATM    6  N19   D T 601      -5.067  -2.812   8.234  1.00 16.91    -0.074 NA
HETATM    7  C20   D T 601      -4.023  -6.339   8.358  1.00 17.65     0.034 A 
HETATM    8  C21   D T 601      -4.618  -7.608   8.273  1.00 18.53     0.047 A 
HETATM    9  C22   D T 601      -6.019  -7.668   8.069  1.00 19.48     0.260 A 
HETATM   10  O23   D T 601      -6.485  -8.822   7.967  1.00 21.52    -0.267 OA
HETATM   11  N24   D T 601      -6.796  -6.528   7.982  1.00 19.49    -0.301 N 
HETATM   12  C25   D T 601      -8.238  -6.564   7.801  1.00 20.07     0.161 C 
ENDROOT
BRANCH   1  13
HETATM   13  N13   D T 601      -7.200  -1.858   7.979  1.00 20.14    -0.188 N 
HETATM   14 1H13   D T 601      -6.815  -1.124   7.587  1.00 24.16     0.184 HD
BRANCH  13  15
HETATM   15  C12   D T 601      -8.510  -1.681   8.370  1.00 24.69     0.049 A 
HETATM   16  C11   D T 601      -9.507  -1.953   7.398  1.00 26.89     0.033 A 
HETATM   17  C10   D T 601     -10.876  -1.816   7.717  1.00 28.95     0.039 A 
HETATM   18  C09   D T 601     -11.257  -1.425   9.018  1.00 30.95     0.069 A 
HETATM   19  C35   D T 601     -10.270  -1.183   9.991  1.00 28.80     0.039 A 
HETATM   20  C34   D T 601      -8.916  -1.304   9.659  1.00 26.81     0.033 A 
BRANCH  18  21
HETATM   21  O08   D T 601     -12.560  -1.329   9.365  1.00 36.09    -0.350 OA
BRANCH  21  22
HETATM   22  C07   D T 601     -13.377  -2.482   9.025  1.00 42.63     0.195 C 
BRANCH  22  23
HETATM   23  C06   D T 601     -13.046  -3.648  10.009  1.00 46.85     0.143 C 
BRANCH  23  24
HETATM   24  N03   D T 601     -12.403  -4.846   9.346  1.00 51.06    -0.411 N 
BRANCH  24  25
HETATM   25  C02   D T 601     -13.195  -5.796   8.452  1.00 53.85     0.112 C 
HETATM   26  C01   D T 601     -12.421  -6.865   7.612  1.00 52.69     0.026 C 
ENDBRANCH  24  25
BRANCH  24  27
HETATM   27  C04   D T 601     -10.912  -4.981   9.505  1.00 47.80     0.112 C 
HETATM   28  C05   D T 601     -10.366  -5.807  10.703  1.00 44.89     0.026 C 
ENDBRANCH  24  27
ENDBRANCH  23  24
ENDBRANCH  22  23
ENDBRANCH  21  22
ENDBRANCH  18  21
ENDBRANCH  13  15
ENDBRANCH   1  13
BRANCH   8  29
HETATM   29  C26   D T 601      -3.834  -8.802   8.382  1.00 21.63     0.023 A 
HETATM   30  C27   D T 601      -3.470  -9.306   9.662  1.00 22.75     0.046 A 
HETATM   31 CL28   D T 601      -3.912  -8.475  11.063  1.00 22.59    -0.083 Cl
HETATM   32  C29   D T 601      -2.697 -10.488   9.806  1.00 24.08     0.025 A 
HETATM   33  C30   D T 601      -2.314 -11.216   8.658  1.00 25.63     0.003 A 
HETATM   34  C31   D T 601      -2.684 -10.747   7.390  1.00 25.41     0.025 A 
HETATM   35  C32   D T 601      -3.435  -9.552   7.252  1.00 23.77     0.046 A 
HETATM   36 CL33   D T 601      -3.845  -9.036   5.694  1.00 25.94    -0.083 Cl
ENDBRANCH   8  29
TORSDOF 9
ENDMDL
MODEL 2
REMARK VINA RESULT:    -7.111      0.601      1.559
REMARK INTER + INTRA:         -12.350
REMARK INTER:                 -10.818
REMARK INTRA:                  -1.532
REMARK UNBOUND:                -1.497
REMARK  9 active torsions:
REMARK  status: ('A' for Active; 'I' for Inactive)
REMARK    1  A    between atoms: C02_2  and  N03_3 
REMARK    2  A    between atoms: N03_3  and  C04_4 
REMARK    3  A    between atoms: N03_3  and  C06_6 
REMARK    4  A    between atoms: C06_6  and  C07_7 
REMARK    5  A    between atoms: C07_7  and  O08_8 
REMARK    6  A    between atoms: O08_8  and  C09_9 
REMARK    7  A    between atoms: C12_12  and  N13_13 
REMARK    8  A    between atoms: N13_13  and  C14_14 
REMARK    9  A    between atoms: C21_21  and  C26_26 
ROOT
HETATM    1  C14   D T 601      -5.956  -3.055   8.343  1.00 17.92     0.728 A 
HETATM    2  N15   D T 601      -6.544  -4.253   8.144  1.00 19.07    -0.044 NA
HETATM    3  C16   D T 601      -5.906  -5.429   8.212  1.00 18.16     0.163 A 
HETATM    4  C17   D T 601      -4.535  -5.413   8.480  1.00 16.80     0.030 A 
HETATM    5  C18   D T 601      -3.911  -4.175   8.644  1.00 18.08     0.151 A 
HETATM    6  N19   D T 601      -4.631  -3.037   8.572  1.00 16.91    -0.074 NA
HETATM    7  C20   D T 601      -3.823  -6.628   8.541  1.00 17.65     0.034 A 
HETATM    8  C21   D T 601      -4.493  -7.847   8.356  1.00 18.53     0.047 A 
HETATM    9  C22   D T 601      -5.883  -7.803   8.082  1.00 19.48     0.260 A 
HETATM   10  O23   D T 601      -6.415  -8.915   7.891  1.00 21.52    -0.267 OA
HETATM   11  N24   D T 601      -6.579  -6.610   8.023  1.00 19.49    -0.301 N 
HETATM   12  C25   D T 601      -8.010  -6.540   7.773  1.00 20.07     0.161 C 
ENDROOT
BRANCH   1  13
HETATM   13  N13   D T 601      -6.683  -1.930   8.271  1.00 20.14    -0.188 N 
HETATM   14 1H13   D T 601      -6.211  -1.184   8.022  1.00 24.16     0.184 HD
BRANCH  13  15
HETATM   15  C12   D T 601      -8.023  -1.711   8.507  1.00 24.69     0.049 A 
HETATM   16  C11   D T 601      -8.391  -1.401   9.842  1.00 26.89     0.033 A 
HETATM   17  C10   D T 601      -9.740  -1.143  10.173  1.00 28.95     0.039 A 
HETATM   18  C09   D T 601     -10.727  -1.176   9.164  1.00 30.95     0.069 A 
HETATM   19  C35   D T 601     -10.359  -1.455   7.836  1.00 28.80     0.039 A 
HETATM   20  C34   D T 601      -9.023  -1.727   7.523  1.00 26.81     0.033 A 
BRANCH  18  21
HETATM   21  O08   D T 601     -12.019  -0.889   9.443  1.00 36.09    -0.350 OA
BRANCH  21  22
HETATM   22  C07   D T 601     -12.985  -1.870   8.976  1.00 42.63     0.195 C 
BRANCH  22  23
HETATM   23  C06   D T 601     -12.928  -3.122   9.907  1.00 46.85     0.143 C 
BRANCH  23  24
HETATM   24  N03   D T 601     -12.486  -4.387   9.207  1.00 51.06    -0.411 N 
BRANCH  24  25
HETATM   25  C02   D T 601     -11.019  -4.804   9.145  1.00 53.85     0.112 C 
HETATM   26  C01   D T 601     -10.362  -5.444  10.412  1.00 52.69     0.026 C 
ENDBRANCH  24  25
BRANCH  24  27
HETATM   27  C04   D T 601     -13.578  -5.284   8.687  1.00 47.80     0.112 C 
HETATM   28  C05   D T 601     -15.047  -4.785   8.768  1.00 44.89     0.026 C 
ENDBRANCH  24  27
ENDBRANCH  23  24
ENDBRANCH  22  23
ENDBRANCH  21  22
ENDBRANCH  18  21
ENDBRANCH  13  15
ENDBRANCH   1  13
BRANCH   8  29
HETATM   29  C26   D T 601      -3.793  -9.095   8.432  1.00 21.63     0.023 A 
HETATM   30  C27   D T 601      -3.547  -9.702   9.695  1.00 22.75     0.046 A 
HETATM   31 CL28   D T 601      -4.028  -8.933  11.119  1.00 22.59    -0.083 Cl
HETATM   32  C29   D T 601      -2.860 -10.939   9.808  1.00 24.08     0.025 A 
HETATM   33  C30   D T 601      -2.448 -11.617   8.639  1.00 25.63     0.003 A 
HETATM   34  C31   D T 601      -2.704 -11.046   7.385  1.00 25.41     0.025 A 
HETATM   35  C32   D T 601      -3.368  -9.798   7.281  1.00 23.77     0.046 A 
HETATM   36 CL33   D T 601      -3.641  -9.158   5.739  1.00 25.94    -0.083 Cl
ENDBRANCH   8  29
TORSDOF 9
ENDMDL
MODEL 3
REMARK VINA RESULT:    -6.847      1.787      3.023
REMARK INTER + INTRA:         -11.946
REMARK INTER:                 -10.661
REMARK INTRA:                  -1.285
REMARK UNBOUND:                -1.497
REMARK  9 active torsions:
REMARK  status: ('A' for Active; 'I' for Inactive)
REMARK    1  A    between atoms: C02_2  and  N03_3 
REMARK    2  A    between atoms: N03_3  and  C04_4 
REMARK    3  A    between atoms: N03_3  and  C06_6 
REMARK    4  A    between atoms: C06_6  and  C07_7 
REMARK    5  A    between atoms: C07_7  and  O08_8 
REMARK    6  A    between atoms: O08_8  and  C09_9 
REMARK    7  A    between atoms: C12_12  and  N13_13 
REMARK    8  A    between atoms: N13_13  and  C14_14 
REMARK    9  A    between atoms: C21_21  and  C26_26 
ROOT
HETATM    1  C14   D T 601      -6.173  -4.584   7.953  1.00 17.92     0.728 A 
HETATM    2  N15   D T 601      -5.083  -5.234   8.410  1.00 19.07    -0.044 NA
HETATM    3  C16   D T 601      -4.773  -6.501   8.103  1.00 18.16     0.163 A 
HETATM    4  C17   D T 601      -5.651  -7.204   7.275  1.00 16.80     0.030 A 
HETATM    5  C18   D T 601      -6.803  -6.552   6.832  1.00 18.08     0.151 A 
HETATM    6  N19   D T 601      -7.034  -5.269   7.179  1.00 16.91    -0.074 NA
HETATM    7  C20   D T 601      -5.372  -8.545   6.943  1.00 17.65     0.034 A 
HETATM    8  C21   D T 601      -4.206  -9.162   7.424  1.00 18.53     0.047 A 
HETATM    9  C22   D T 601      -3.355  -8.402   8.263  1.00 19.48     0.260 A 
HETATM   10  O23   D T 601      -2.354  -9.014   8.688  1.00 21.52    -0.267 OA
HETATM   11  N24   D T 601      -3.630  -7.086   8.587  1.00 19.49    -0.301 N 
HETATM   12  C25   D T 601      -2.758  -6.276   9.423  1.00 20.07     0.161 C 
ENDROOT
BRANCH   1  13
HETATM   13  N13   D T 601      -6.390  -3.307   8.303  1.00 20.14    -0.188 N 
HETATM   14 1H13   D T 601      -5.629  -2.805   8.407  1.00 24.16     0.184 HD
BRANCH  13  15
HETATM   15  C12   D T 601      -7.566  -2.626   8.530  1.00 24.69     0.049 A 
HETATM   16  C11   D T 601      -8.482  -2.561   7.449  1.00 26.89     0.033 A 
HETATM   17  C10   D T 601      -9.721  -1.899   7.597  1.00 28.95     0.039 A 
HETATM   18  C09   D T 601     -10.059  -1.314   8.837  1.00 30.95     0.069 A 
HETATM   19  C35   D T 601      -9.164  -1.403   9.917  1.00 28.80     0.039 A 
HETATM   20  C34   D T 601      -7.931  -2.045   9.754  1.00 26.81     0.033 A 
BRANCH  18  21
HETATM   21  O08   D T 601     -11.256  -0.714   9.022  1.00 36.09    -0.350 OA
BRANCH  21  22
HETATM   22  C07   D T 601     -12.415  -1.541   8.731  1.00 42.63     0.195 C 
BRANCH  22  23
HETATM   23  C06   D T 601     -12.600  -2.579   9.882  1.00 46.85     0.143 C 
BRANCH  23  24
HETATM   24  N03   D T 601     -12.608  -4.018   9.414  1.00 51.06    -0.411 N 
BRANCH  24  25
HETATM   25  C02   D T 601     -11.337  -4.723   8.950  1.00 53.85     0.112 C 
HETATM   26  C01   D T 601     -10.219  -5.030  10.000  1.00 52.69     0.026 C 
ENDBRANCH  24  25
BRANCH  24  27
HETATM   27  C04   D T 601     -13.911  -4.761   9.552  1.00 47.80     0.112 C 
HETATM   28  C05   D T 601     -15.066  -4.420   8.570  1.00 44.89     0.026 C 
ENDBRANCH  24  27
ENDBRANCH  23  24
ENDBRANCH  22  23
ENDBRANCH  21  22
ENDBRANCH  18  21
ENDBRANCH  13  15
ENDBRANCH   1  13
BRANCH   8  29
HETATM   29  C26   D T 601      -3.892 -10.517   7.084  1.00 21.63     0.023 A 
HETATM   30  C27   D T 601      -2.996 -10.799   6.015  1.00 22.75     0.046 A 
HETATM   31 CL28   D T 601      -2.335  -9.541   5.103  1.00 22.59    -0.083 Cl
HETATM   32  C29   D T 601      -2.660 -12.130   5.653  1.00 24.08     0.025 A 
HETATM   33  C30   D T 601      -3.186 -13.209   6.398  1.00 25.63     0.003 A 
HETATM   34  C31   D T 601      -4.051 -12.949   7.469  1.00 25.41     0.025 A 
HETATM   35  C32   D T 601      -4.402 -11.619   7.809  1.00 23.77     0.046 A 
HETATM   36 CL33   D T 601      -5.457 -11.372   9.109  1.00 25.94    -0.083 Cl
ENDBRANCH   8  29
TORSDOF 9
ENDMDL
MODEL 4
REMARK VINA RESULT:    -6.829      1.900      2.736
REMARK INTER + INTRA:         -11.920
REMARK INTER:                 -10.578
REMARK INTRA:                  -1.342
REMARK UNBOUND:                -1.497
REMARK  9 active torsions:
REMARK  status: ('A' for Active; 'I' for Inactive)
REMARK    1  A    between atoms: C02_2  and  N03_3 
REMARK    2  A    between atoms: N03_3  and  C04_4 
REMARK    3  A    between atoms: N03_3  and  C06_6 
REMARK    4  A    between atoms: C06_6  and  C07_7 
REMARK    5  A    between atoms: C07_7  and  O08_8 
REMARK    6  A    between atoms: O08_8  and  C09_9 
REMARK    7  A    between atoms: C12_12  and  N13_13 
REMARK    8  A    between atoms: N13_13  and  C14_14 
REMARK    9  A    between atoms: C21_21  and  C26_26 
ROOT
HETATM    1  C14   D T 601      -5.837  -4.770   7.984  1.00 17.92     0.728 A 
HETATM    2  N15   D T 601      -4.813  -5.499   8.473  1.00 19.07    -0.044 NA
HETATM    3  C16   D T 601      -4.583  -6.782   8.166  1.00 18.16     0.163 A 
HETATM    4  C17   D T 601      -5.478  -7.416   7.301  1.00 16.80     0.030 A 
HETATM    5  C18   D T 601      -6.565  -6.681   6.824  1.00 18.08     0.151 A 
HETATM    6  N19   D T 601      -6.716  -5.387   7.174  1.00 16.91    -0.074 NA
HETATM    7  C20   D T 601      -5.283  -8.771   6.967  1.00 17.65     0.034 A 
HETATM    8  C21   D T 601      -4.182  -9.472   7.483  1.00 18.53     0.047 A 
HETATM    9  C22   D T 601      -3.309  -8.780   8.359  1.00 19.48     0.260 A 
HETATM   10  O23   D T 601      -2.370  -9.465   8.813  1.00 21.52    -0.267 OA
HETATM   11  N24   D T 601      -3.502  -7.451   8.684  1.00 19.49    -0.301 N 
HETATM   12  C25   D T 601      -2.605  -6.711   9.558  1.00 20.07     0.161 C 
ENDROOT
BRANCH   1  13
HETATM   13  N13   D T 601      -5.975  -3.483   8.338  1.00 20.14    -0.188 N 
HETATM   14 1H13   D T 601      -5.194  -3.002   8.342  1.00 24.16     0.184 HD
BRANCH  13  15
HETATM   15  C12   D T 601      -7.096  -2.766   8.694  1.00 24.69     0.049 A 
HETATM   16  C11   D T 601      -8.008  -2.452   7.654  1.00 26.89     0.033 A 
HETATM   17  C10   D T 601      -9.194  -1.736   7.931  1.00 28.95     0.039 A 
HETATM   18  C09   D T 601      -9.483  -1.345   9.257  1.00 30.95     0.069 A 
HETATM   19  C35   D T 601      -8.593  -1.681  10.293  1.00 28.80     0.039 A 
HETATM   20  C34   D T 601      -7.412  -2.375  10.005  1.00 26.81     0.033 A 
BRANCH  18  21
HETATM   21  O08   D T 601     -10.630  -0.698   9.559  1.00 36.09    -0.350 OA
BRANCH  21  22
HETATM   22  C07   D T 601     -11.672  -1.526  10.144  1.00 42.63     0.195 C 
BRANCH  22  23
HETATM   23  C06   D T 601     -12.375  -2.335   9.009  1.00 46.85     0.143 C 
BRANCH  23  24
HETATM   24  N03   D T 601     -12.386  -3.831   9.238  1.00 51.06    -0.411 N 
BRANCH  24  25
HETATM   25  C02   D T 601     -13.641  -4.567   9.697  1.00 53.85     0.112 C 
HETATM   26  C01   D T 601     -14.822  -4.748   8.688  1.00 52.69     0.026 C 
ENDBRANCH  24  25
BRANCH  24  27
HETATM   27  C04   D T 601     -11.132  -4.576   8.864  1.00 47.80     0.112 C 
HETATM   28  C05   D T 601     -10.159  -5.006   9.996  1.00 44.89     0.026 C 
ENDBRANCH  24  27
ENDBRANCH  23  24
ENDBRANCH  22  23
ENDBRANCH  21  22
ENDBRANCH  18  21
ENDBRANCH  13  15
ENDBRANCH   1  13
BRANCH   8  29
HETATM   29  C26   D T 601      -3.953 -10.845   7.142  1.00 21.63     0.023 A 
HETATM   30  C27   D T 601      -4.610 -11.881   7.861  1.00 22.75     0.046 A 
HETATM   31 CL28   D T 601      -5.625 -11.508   9.158  1.00 22.59    -0.083 Cl
HETATM   32  C29   D T 601      -4.409 -13.251   7.548  1.00 24.08     0.025 A 
HETATM   33  C30   D T 601      -3.574 -13.604   6.465  1.00 25.63     0.003 A 
HETATM   34  C31   D T 601      -2.937 -12.595   5.730  1.00 25.41     0.025 A 
HETATM   35  C32   D T 601      -3.123 -11.230   6.064  1.00 23.77     0.046 A 
HETATM   36 CL33   D T 601      -2.320 -10.060   5.142  1.00 25.94    -0.083 Cl
ENDBRANCH   8  29
TORSDOF 9
ENDMDL
MODEL 5
REMARK VINA RESULT:    -6.656      2.666      4.244
REMARK INTER + INTRA:         -11.655
REMARK INTER:                 -10.533
REMARK INTRA:                  -1.122
REMARK UNBOUND:                -1.497
REMARK  9 active torsions:
REMARK  status: ('A' for Active; 'I' for Inactive)
REMARK    1  A    between atoms: C02_2  and  N03_3 
REMARK    2  A    between atoms: N03_3  and  C04_4 
REMARK    3  A    between atoms: N03_3  and  C06_6 
REMARK    4  A    between atoms: C06_6  and  C07_7 
REMARK    5  A    between atoms: C07_7  and  O08_8 
REMARK    6  A    between atoms: O08_8  and  C09_9 
REMARK    7  A    between atoms: C12_12  and  N13_13 
REMARK    8  A    between atoms: N13_13  and  C14_14 
REMARK    9  A    between atoms: C21_21  and  C26_26 
ROOT
HETATM    1  C14   D T 601      -4.802  -6.105   8.299  1.00 17.92     0.728 A 
HETATM    2  N15   D T 601      -4.087  -7.088   8.884  1.00 19.07    -0.044 NA
HETATM    3  C16   D T 601      -4.063  -8.359   8.461  1.00 18.16     0.163 A 
HETATM    4  C17   D T 601      -4.852  -8.696   7.360  1.00 16.80     0.030 A 
HETATM    5  C18   D T 601      -5.629  -7.693   6.776  1.00 18.08     0.151 A 
HETATM    6  N19   D T 601      -5.585  -6.433   7.256  1.00 16.91    -0.074 NA
HETATM    7  C20   D T 601      -4.870 -10.026   6.895  1.00 17.65     0.034 A 
HETATM    8  C21   D T 601      -4.082 -11.002   7.524  1.00 18.53     0.047 A 
HETATM    9  C22   D T 601      -3.305 -10.605   8.640  1.00 19.48     0.260 A 
HETATM   10  O23   D T 601      -2.653 -11.523   9.178  1.00 21.52    -0.267 OA
HETATM   11  N24   D T 601      -3.288  -9.299   9.093  1.00 19.49    -0.301 N 
HETATM   12  C25   D T 601      -2.477  -8.861  10.218  1.00 20.07     0.161 C 
ENDROOT
BRANCH   1  13
HETATM   13  N13   D T 601      -4.748  -4.856   8.785  1.00 20.14    -0.188 N 
HETATM   14 1H13   D T 601      -3.904  -4.561   8.990  1.00 24.16     0.184 HD
BRANCH  13  15
HETATM   15  C12   D T 601      -5.751  -3.942   9.025  1.00 24.69     0.049 A 
HETATM   16  C11   D T 601      -6.683  -4.272  10.043  1.00 26.89     0.033 A 
HETATM   17  C10   D T 601      -7.734  -3.386  10.369  1.00 28.95     0.039 A 
HETATM   18  C09   D T 601      -7.847  -2.153   9.691  1.00 30.95     0.069 A 
HETATM   19  C35   D T 601      -6.906  -1.812   8.703  1.00 28.80     0.039 A 
HETATM   20  C34   D T 601      -5.880  -2.705   8.374  1.00 26.81     0.033 A 
BRANCH  18  21
HETATM   21  O08   D T 601      -8.814  -1.266  10.013  1.00 36.09    -0.350 OA
BRANCH  21  22
HETATM   22  C07   D T 601      -9.968  -1.261   9.129  1.00 42.63     0.195 C 
BRANCH  22  23
HETATM   23  C06   D T 601     -11.266  -1.149   9.989  1.00 46.85     0.143 C 
BRANCH  23  24
HETATM   24  N03   D T 601     -12.487  -1.762   9.340  1.00 51.06    -0.411 N 
BRANCH  24  25
HETATM   25  C02   D T 601     -12.840  -3.236   9.516  1.00 53.85     0.112 C 
HETATM   26  C01   D T 601     -11.875  -4.319   8.929  1.00 52.69     0.026 C 
ENDBRANCH  24  25
BRANCH  24  27
HETATM   27  C04   D T 601     -13.410  -0.816   8.617  1.00 47.80     0.112 C 
HETATM   28  C05   D T 601     -13.084   0.703   8.645  1.00 44.89     0.026 C 
ENDBRANCH  24  27
ENDBRANCH  23  24
ENDBRANCH  22  23
ENDBRANCH  21  22
ENDBRANCH  18  21
ENDBRANCH  13  15
ENDBRANCH   1  13
BRANCH   8  29
HETATM   29  C26   D T 601      -4.070 -12.356   7.057  1.00 21.63     0.023 A 
HETATM   30  C27   D T 601      -4.973 -13.310   7.604  1.00 22.75     0.046 A 
HETATM   31 CL28   D T 601      -6.030 -12.871   8.844  1.00 22.59    -0.083 Cl
HETATM   32  C29   D T 601      -4.990 -14.660   7.163  1.00 24.08     0.025 A 
HETATM   33  C30   D T 601      -4.126 -15.065   6.122  1.00 25.63     0.003 A 
HETATM   34  C31   D T 601      -3.247 -14.132   5.555  1.00 25.41     0.025 A 
HETATM   35  C32   D T 601      -3.217 -12.793   6.017  1.00 23.77     0.046 A 
HETATM   36 CL33   D T 601      -2.128 -11.717   5.296  1.00 25.94    -0.083 Cl
ENDBRANCH   8  29
TORSDOF 9
ENDMDL
MODEL 6
REMARK VINA RESULT:    -6.640      2.689      4.476
REMARK INTER + INTRA:         -11.631
REMARK INTER:                 -10.522
REMARK INTRA:                  -1.109
REMARK UNBOUND:                -1.497
REMARK  9 active torsions:
REMARK  status: ('A' for Active; 'I' for Inactive)
REMARK    1  A    between atoms: C02_2  and  N03_3 
REMARK    2  A    between atoms: N03_3  and  C04_4 
REMARK    3  A    between atoms: N03_3  and  C06_6 
REMARK    4  A    between atoms: C06_6  and  C07_7 
REMARK    5  A    between atoms: C07_7  and  O08_8 
REMARK    6  A    between atoms: O08_8  and  C09_9 
REMARK    7  A    between atoms: C12_12  and  N13_13 
REMARK    8  A    between atoms: N13_13  and  C14_14 
REMARK    9  A    between atoms: C21_21  and  C26_26 
ROOT
HETATM    1  C14   D T 601      -4.783  -6.165   8.176  1.00 17.92     0.728 A 
HETATM    2  N15   D T 601      -4.028  -7.139   8.724  1.00 19.07    -0.044 NA
HETATM    3  C16   D T 601      -4.026  -8.415   8.315  1.00 18.16     0.163 A 
HETATM    4  C17   D T 601      -4.884  -8.766   7.270  1.00 16.80     0.030 A 
HETATM    5  C18   D T 601      -5.701  -7.772   6.727  1.00 18.08     0.151 A 
HETATM    6  N19   D T 601      -5.630  -6.507   7.190  1.00 16.91    -0.074 NA
HETATM    7  C20   D T 601      -4.927 -10.101   6.822  1.00 17.65     0.034 A 
HETATM    8  C21   D T 601      -4.096 -11.068   7.409  1.00 18.53     0.047 A 
HETATM    9  C22   D T 601      -3.250 -10.657   8.468  1.00 19.48     0.260 A 
HETATM   10  O23   D T 601      -2.561 -11.567   8.973  1.00 21.52    -0.267 OA
HETATM   11  N24   D T 601      -3.208  -9.346   8.905  1.00 19.49    -0.301 N 
HETATM   12  C25   D T 601      -2.328  -8.893   9.970  1.00 20.07     0.161 C 
ENDROOT
BRANCH   1  13
HETATM   13  N13   D T 601      -4.702  -4.910   8.644  1.00 20.14    -0.188 N 
HETATM   14 1H13   D T 601      -3.848  -4.612   8.793  1.00 24.16     0.184 HD
BRANCH  13  15
HETATM   15  C12   D T 601      -5.691  -3.996   8.936  1.00 24.69     0.049 A 
HETATM   16  C11   D T 601      -6.449  -4.232  10.112  1.00 26.89     0.033 A 
HETATM   17  C10   D T 601      -7.471  -3.337  10.499  1.00 28.95     0.039 A 
HETATM   18  C09   D T 601      -7.727  -2.188   9.721  1.00 30.95     0.069 A 
HETATM   19  C35   D T 601      -6.957  -1.938   8.571  1.00 28.80     0.039 A 
HETATM   20  C34   D T 601      -5.959  -2.841   8.186  1.00 26.81     0.033 A 
BRANCH  18  21
HETATM   21  O08   D T 601      -8.668  -1.290  10.090  1.00 36.09    -0.350 OA
BRANCH  21  22
HETATM   22  C07   D T 601      -9.862  -1.267   9.261  1.00 42.63     0.195 C 
BRANCH  22  23
HETATM   23  C06   D T 601     -11.121  -1.294  10.183  1.00 46.85     0.143 C 
BRANCH  23  24
HETATM   24  N03   D T 601     -12.314  -1.995   9.572  1.00 51.06    -0.411 N 
BRANCH  24  25
HETATM   25  C02   D T 601     -13.508  -1.222   9.019  1.00 53.85     0.112 C 
HETATM   26  C01   D T 601     -13.324   0.286   8.646  1.00 52.69     0.026 C 
ENDBRANCH  24  25
BRANCH  24  27
HETATM   27  C04   D T 601     -12.207  -3.489   9.417  1.00 47.80     0.112 C 
HETATM   28  C05   D T 601     -13.517  -4.321   9.336  1.00 44.89     0.026 C 
ENDBRANCH  24  27
ENDBRANCH  23  24
ENDBRANCH  22  23
ENDBRANCH  21  22
ENDBRANCH  18  21
ENDBRANCH  13  15
ENDBRANCH   1  13
BRANCH   8  29
HETATM   29  C26   D T 601      -4.109 -12.428   6.958  1.00 21.63     0.023 A 
HETATM   30  C27   D T 601      -3.232 -12.846   5.919  1.00 22.75     0.046 A 
HETATM   31 CL28   D T 601      -2.205 -11.735   5.171  1.00 22.59    -0.083 Cl
HETATM   32  C29   D T 601      -3.216 -14.186   5.449  1.00 24.08     0.025 A 
HETATM   33  C30   D T 601      -4.055 -15.148   6.055  1.00 25.63     0.003 A 
HETATM   34  C31   D T 601      -4.908 -14.758   7.096  1.00 25.41     0.025 A 
HETATM   35  C32   D T 601      -4.937 -13.414   7.543  1.00 23.77     0.046 A 
HETATM   36 CL33   D T 601      -5.995 -13.006   8.799  1.00 25.94    -0.083 Cl
ENDBRANCH   8  29
TORSDOF 9
ENDMDL
MODEL 7
REMARK VINA RESULT:    -6.359      2.654      4.355
REMARK INTER + INTRA:         -11.201
REMARK INTER:                  -9.689
REMARK INTRA:                  -1.513
REMARK UNBOUND:                -1.497
REMARK  9 active torsions:
REMARK  status: ('A' for Active; 'I' for Inactive)
REMARK    1  A    between atoms: C02_2  and  N03_3 
REMARK    2  A    between atoms: N03_3  and  C04_4 
REMARK    3  A    between atoms: N03_3  and  C06_6 
REMARK    4  A    between atoms: C06_6  and  C07_7 
REMARK    5  A    between atoms: C07_7  and  O08_8 
REMARK    6  A    between atoms: O08_8  and  C09_9 
REMARK    7  A    between atoms: C12_12  and  N13_13 
REMARK    8  A    between atoms: N13_13  and  C14_14 
REMARK    9  A    between atoms: C21_21  and  C26_26 
ROOT
HETATM    1  C14   D T 601      -5.718  -7.111   9.933  1.00 17.92     0.728 A 
HETATM    2  N15   D T 601      -4.493  -7.510   9.536  1.00 19.07    -0.044 NA
HETATM    3  C16   D T 601      -4.219  -8.721   9.031  1.00 18.16     0.163 A 
HETATM    4  C17   D T 601      -5.266  -9.640   8.935  1.00 16.80     0.030 A 
HETATM    5  C18   D T 601      -6.529  -9.248   9.384  1.00 18.08     0.151 A 
HETATM    6  N19   D T 601      -6.722  -8.004   9.868  1.00 16.91    -0.074 NA
HETATM    7  C20   D T 601      -5.017 -10.930   8.427  1.00 17.65     0.034 A 
HETATM    8  C21   D T 601      -3.727 -11.282   8.000  1.00 18.53     0.047 A 
HETATM    9  C22   D T 601      -2.702 -10.311   8.125  1.00 19.48     0.260 A 
HETATM   10  O23   D T 601      -1.571 -10.694   7.762  1.00 21.52    -0.267 OA
HETATM   11  N24   D T 601      -2.949  -9.046   8.622  1.00 19.49    -0.301 N 
HETATM   12  C25   D T 601      -1.921  -8.023   8.734  1.00 20.07     0.161 C 
ENDROOT
BRANCH   1  13
HETATM   13  N13   D T 601      -5.897  -5.870  10.410  1.00 20.14    -0.188 N 
HETATM   14 1H13   D T 601      -5.479  -5.703  11.210  1.00 24.16     0.184 HD
BRANCH  13  15
HETATM   15  C12   D T 601      -6.605  -4.804   9.897  1.00 24.69     0.049 A 
HETATM   16  C11   D T 601      -7.151  -3.892  10.835  1.00 26.89     0.033 A 
HETATM   17  C10   D T 601      -7.875  -2.760  10.398  1.00 28.95     0.039 A 
HETATM   18  C09   D T 601      -8.040  -2.525   9.016  1.00 30.95     0.069 A 
HETATM   19  C35   D T 601      -7.474  -3.414   8.085  1.00 28.80     0.039 A 
HETATM   20  C34   D T 601      -6.775  -4.542   8.529  1.00 26.81     0.033 A 
BRANCH  18  21
HETATM   21  O08   D T 601      -8.689  -1.427   8.567  1.00 36.09    -0.350 OA
BRANCH  21  22
HETATM   22  C07   D T 601     -10.033  -1.245   9.092  1.00 42.63     0.195 C 
BRANCH  22  23
HETATM   23  C06   D T 601     -11.013  -2.179   8.316  1.00 46.85     0.143 C 
BRANCH  23  24
HETATM   24  N03   D T 601     -12.169  -2.685   9.151  1.00 51.06    -0.411 N 
BRANCH  24  25
HETATM   25  C02   D T 601     -13.304  -1.769   9.597  1.00 53.85     0.112 C 
HETATM   26  C01   D T 601     -13.649  -0.515   8.726  1.00 52.69     0.026 C 
ENDBRANCH  24  25
BRANCH  24  27
HETATM   27  C04   D T 601     -12.210  -4.168   9.410  1.00 47.80     0.112 C 
HETATM   28  C05   D T 601     -10.886  -4.894   9.776  1.00 44.89     0.026 C 
ENDBRANCH  24  27
ENDBRANCH  23  24
ENDBRANCH  22  23
ENDBRANCH  21  22
ENDBRANCH  18  21
ENDBRANCH  13  15
ENDBRANCH   1  13
BRANCH   8  29
HETATM   29  C26   D T 601      -3.454 -12.581   7.462  1.00 21.63     0.023 A 
HETATM   30  C27   D T 601      -3.114 -13.658   8.328  1.00 22.75     0.046 A 
HETATM   31 CL28   D T 601      -2.977 -13.403   9.992  1.00 22.59    -0.083 Cl
HETATM   32  C29   D T 601      -2.841 -14.959   7.831  1.00 24.08     0.025 A 
HETATM   33  C30   D T 601      -2.952 -15.214   6.446  1.00 25.63     0.003 A 
HETATM   34  C31   D T 601      -3.310 -14.171   5.581  1.00 25.41     0.025 A 
HETATM   35  C32   D T 601      -3.557 -12.868   6.082  1.00 23.77     0.046 A 
HETATM   36 CL33   D T 601      -3.977 -11.651   4.984  1.00 25.94    -0.083 Cl
ENDBRANCH   8  29
TORSDOF 9
ENDMDL
MODEL 8
REMARK VINA RESULT:    -6.221      2.546      4.355
REMARK INTER + INTRA:         -10.991
REMARK INTER:                  -9.320
REMARK INTRA:                  -1.671
REMARK UNBOUND:                -1.497
REMARK  9 active torsions:
REMARK  status: ('A' for Active; 'I' for Inactive)
REMARK    1  A    between atoms: C02_2  and  N03_3 
REMARK    2  A    between atoms: N03_3  and  C04_4 
REMARK    3  A    between atoms: N03_3  and  C06_6 
REMARK    4  A    between atoms: C06_6  and  C07_7 
REMARK    5  A    between atoms: C07_7  and  O08_8 
REMARK    6  A    between atoms: O08_8  and  C09_9 
REMARK    7  A    between atoms: C12_12  and  N13_13 
REMARK    8  A    between atoms: N13_13  and  C14_14 
REMARK    9  A    between atoms: C21_21  and  C26_26 
ROOT
HETATM    1  C14   D T 601      -5.583  -6.792   9.734  1.00 17.92     0.728 A 
HETATM    2  N15   D T 601      -4.368  -7.274   9.403  1.00 19.07    -0.044 NA
HETATM    3  C16   D T 601      -4.147  -8.506   8.926  1.00 18.16     0.163 A 
HETATM    4  C17   D T 601      -5.245  -9.359   8.788  1.00 16.80     0.030 A 
HETATM    5  C18   D T 601      -6.501  -8.882   9.169  1.00 18.08     0.151 A 
HETATM    6  N19   D T 601      -6.637  -7.621   9.629  1.00 16.91    -0.074 NA
HETATM    7  C20   D T 601      -5.053 -10.669   8.307  1.00 17.65     0.034 A 
HETATM    8  C21   D T 601      -3.769 -11.107   7.949  1.00 18.53     0.047 A 
HETATM    9  C22   D T 601      -2.692 -10.202   8.115  1.00 19.48     0.260 A 
HETATM   10  O23   D T 601      -1.571 -10.660   7.814  1.00 21.52    -0.267 OA
HETATM   11  N24   D T 601      -2.882  -8.916   8.586  1.00 19.49    -0.301 N 
HETATM   12  C25   D T 601      -1.798  -7.959   8.738  1.00 20.07     0.161 C 
ENDROOT
BRANCH   1  13
HETATM   13  N13   D T 601      -5.706  -5.536  10.189  1.00 20.14    -0.188 N 
HETATM   14 1H13   D T 601      -5.133  -5.317  10.870  1.00 24.16     0.184 HD
BRANCH  13  15
HETATM   15  C12   D T 601      -6.551  -4.519   9.798  1.00 24.69     0.049 A 
HETATM   16  C11   D T 601      -7.181  -3.782  10.834  1.00 26.89     0.033 A 
HETATM   17  C10   D T 601      -8.049  -2.711  10.526  1.00 28.95     0.039 A 
HETATM   18  C09   D T 601      -8.276  -2.357   9.179  1.00 30.95     0.069 A 
HETATM   19  C35   D T 601      -7.629  -3.069   8.153  1.00 28.80     0.039 A 
HETATM   20  C34   D T 601      -6.786  -4.141   8.467  1.00 26.81     0.033 A 
BRANCH  18  21
HETATM   21  O08   D T 601      -9.065  -1.309   8.855  1.00 36.09    -0.350 OA
BRANCH  21  22
HETATM   22  C07   D T 601     -10.444  -1.410   9.305  1.00 42.63     0.195 C 
BRANCH  22  23
HETATM   23  C06   D T 601     -11.262  -2.227   8.256  1.00 46.85     0.143 C 
BRANCH  23  24
HETATM   24  N03   D T 601     -11.768  -3.555   8.773  1.00 51.06    -0.411 N 
BRANCH  24  25
HETATM   25  C02   D T 601     -10.885  -4.799   8.804  1.00 53.85     0.112 C 
HETATM   26  C01   D T 601     -10.503  -5.421  10.187  1.00 52.69     0.026 C 
ENDBRANCH  24  25
BRANCH  24  27
HETATM   27  C04   D T 601     -13.147  -3.558   9.379  1.00 47.80     0.112 C 
HETATM   28  C05   D T 601     -14.085  -4.761   9.082  1.00 44.89     0.026 C 
ENDBRANCH  24  27
ENDBRANCH  23  24
ENDBRANCH  22  23
ENDBRANCH  21  22
ENDBRANCH  18  21
ENDBRANCH  13  15
ENDBRANCH   1  13
BRANCH   8  29
HETATM   29  C26   D T 601      -3.553 -12.429   7.440  1.00 21.63     0.023 A 
HETATM   30  C27   D T 601      -3.601 -12.675   6.040  1.00 22.75     0.046 A 
HETATM   31 CL28   D T 601      -3.967 -11.423   4.967  1.00 22.59    -0.083 Cl
HETATM   32  C29   D T 601      -3.389 -13.971   5.501  1.00 24.08     0.025 A 
HETATM   33  C30   D T 601      -3.074 -15.043   6.366  1.00 25.63     0.003 A 
HETATM   34  C31   D T 601      -2.998 -14.814   7.746  1.00 25.41     0.025 A 
HETATM   35  C32   D T 601      -3.236 -13.522   8.279  1.00 23.77     0.046 A 
HETATM   36 CL33   D T 601      -3.136 -13.313   9.956  1.00 25.94    -0.083 Cl
ENDBRANCH   8  29
TORSDOF 9
ENDMDL
MODEL 9
REMARK VINA RESULT:    -6.209      3.774     10.001
REMARK INTER + INTRA:         -10.973
REMARK INTER:                 -10.027
REMARK INTRA:                  -0.945
REMARK UNBOUND:                -1.497
REMARK  9 active torsions:
REMARK  status: ('A' for Active; 'I' for Inactive)
REMARK    1  A    between atoms: C02_2  and  N03_3 
REMARK    2  A    between atoms: N03_3  and  C04_4 
REMARK    3  A    between atoms: N03_3  and  C06_6 
REMARK    4  A    between atoms: C06_6  and  C07_7 
REMARK    5  A    between atoms: C07_7  and  O08_8 
REMARK    6  A    between atoms: O08_8  and  C09_9 
REMARK    7  A    between atoms: C12_12  and  N13_13 
REMARK    8  A    between atoms: N13_13  and  C14_14 
REMARK    9  A    between atoms: C21_21  and  C26_26 
ROOT
HETATM    1  C14   D T 601      -4.851  -7.542   7.614  1.00 17.92     0.728 A 
HETATM    2  N15   D T 601      -5.028  -6.330   8.178  1.00 19.07    -0.044 NA
HETATM    3  C16   D T 601      -6.218  -5.732   8.329  1.00 18.16     0.163 A 
HETATM    4  C17   D T 601      -7.347  -6.397   7.846  1.00 16.80     0.030 A 
HETATM    5  C18   D T 601      -7.167  -7.633   7.222  1.00 18.08     0.151 A 
HETATM    6  N19   D T 601      -5.933  -8.170   7.123  1.00 16.91    -0.074 NA
HETATM    7  C20   D T 601      -8.615  -5.795   7.968  1.00 17.65     0.034 A 
HETATM    8  C21   D T 601      -8.744  -4.544   8.591  1.00 18.53     0.047 A 
HETATM    9  C22   D T 601      -7.564  -3.914   9.058  1.00 19.48     0.260 A 
HETATM   10  O23   D T 601      -7.738  -2.789   9.571  1.00 21.52    -0.267 OA
HETATM   11  N24   D T 601      -6.321  -4.506   8.939  1.00 19.49    -0.301 N 
HETATM   12  C25   D T 601      -5.099  -3.893   9.435  1.00 20.07     0.161 C 
ENDROOT
BRANCH   1  13
HETATM   13  N13   D T 601      -3.619  -8.066   7.524  1.00 20.14    -0.188 N 
HETATM   14 1H13   D T 601      -2.946  -7.518   7.822  1.00 24.16     0.184 HD
BRANCH  13  15
HETATM   15  C12   D T 601      -3.198  -9.293   7.058  1.00 24.69     0.049 A 
HETATM   16  C11   D T 601      -3.083 -10.332   8.017  1.00 26.89     0.033 A 
HETATM   17  C10   D T 601      -2.677 -11.628   7.627  1.00 28.95     0.039 A 
HETATM   18  C09   D T 601      -2.401 -11.896   6.269  1.00 30.95     0.069 A 
HETATM   19  C35   D T 601      -2.542 -10.874   5.313  1.00 28.80     0.039 A 
HETATM   20  C34   D T 601      -2.927  -9.589   5.713  1.00 26.81     0.033 A 
BRANCH  18  21
HETATM   21  O08   D T 601      -2.053 -13.136   5.859  1.00 36.09    -0.350 OA
BRANCH  21  22
HETATM   22  C07   D T 601      -2.137 -14.171   6.876  1.00 42.63     0.195 C 
BRANCH  22  23
HETATM   23  C06   D T 601      -2.992 -15.355   6.327  1.00 46.85     0.143 C 
BRANCH  23  24
HETATM   24  N03   D T 601      -4.284 -14.925   5.667  1.00 51.06    -0.411 N 
BRANCH  24  25
HETATM   25  C02   D T 601      -5.339 -14.114   6.412  1.00 53.85     0.112 C 
HETATM   26  C01   D T 601      -6.509 -14.870   7.124  1.00 52.69     0.026 C 
ENDBRANCH  24  25
BRANCH  24  27
HETATM   27  C04   D T 601      -4.419 -15.225   4.197  1.00 47.80     0.112 C 
HETATM   28  C05   D T 601      -5.840 -15.234   3.570  1.00 44.89     0.026 C 
ENDBRANCH  24  27
ENDBRANCH  23  24
ENDBRANCH  22  23
ENDBRANCH  21  22
ENDBRANCH  18  21
ENDBRANCH  13  15
ENDBRANCH   1  13
BRANCH   8  29
HETATM   29  C26   D T 601     -10.025  -3.921   8.743  1.00 21.63     0.023 A 
HETATM   30  C27   D T 601     -10.941  -4.397   9.722  1.00 22.75     0.046 A 
HETATM   31 CL28   D T 601     -10.551  -5.733  10.678  1.00 22.59    -0.083 Cl
HETATM   32  C29   D T 601     -12.218  -3.802   9.902  1.00 24.08     0.025 A 
HETATM   33  C30   D T 601     -12.579  -2.678   9.127  1.00 25.63     0.003 A 
HETATM   34  C31   D T 601     -11.679  -2.180   8.175  1.00 25.41     0.025 A 
HETATM   35  C32   D T 601     -10.416  -2.795   7.983  1.00 23.77     0.046 A 
HETATM   36 CL33   D T 601      -9.378  -2.151   6.813  1.00 25.94    -0.083 Cl
ENDBRANCH   8  29
TORSDOF 9
ENDMDL
