MODEL 1
REMARK VINA RESULT:    -8.362      0.000      0.000
REMARK INTER + INTRA:         -13.916
REMARK INTER:                 -12.762
REMARK INTRA:                  -1.154
REMARK UNBOUND:                -1.154
REMARK  9 active torsions:
REMARK  status: ('A' for Active; 'I' for Inactive)
REMARK    1  A    between atoms: C02_2  and  N03_3 
REMARK    2  A    between atoms: N03_3  and  C04_4 
REMARK    3  A    between atoms: N03_3  and  C06_6 
REMARK    4  A    between atoms: C06_6  and  C07_7 
REMARK    5  A    between atoms: C07_7  and  O08_8 
REMARK    6  A    between atoms: O08_8  and  C09_9 
REMARK    7  A    between atoms: C12_12  and  N13_13 
REMARK    8  A    between atoms: N13_13  and  C14_14 
REMARK    9  A    between atoms: C21_21  and  C26_26 
ROOT
HETATM    1  C14   D T 601      -8.922   2.299   7.658  1.00 17.92     0.728 A 
HETATM    2  N15   D T 601      -9.104   3.403   8.409  1.00 19.07    -0.044 NA
HETATM    3  C16   D T 601      -8.248   4.433   8.460  1.00 18.16     0.163 A 
HETATM    4  C17   D T 601      -7.077   4.344   7.705  1.00 16.80     0.030 A 
HETATM    5  C18   D T 601      -6.862   3.184   6.957  1.00 18.08     0.151 A 
HETATM    6  N19   D T 601      -7.782   2.199   6.953  1.00 16.91    -0.074 NA
HETATM    7  C20   D T 601      -6.140   5.397   7.744  1.00 17.65     0.034 A 
HETATM    8  C21   D T 601      -6.395   6.537   8.522  1.00 18.53     0.047 A 
HETATM    9  C22   D T 601      -7.596   6.570   9.271  1.00 19.48     0.260 A 
HETATM   10  O23   D T 601      -7.750   7.593   9.971  1.00 21.52    -0.267 OA
HETATM   11  N24   D T 601      -8.515   5.538   9.231  1.00 19.49    -0.301 N 
HETATM   12  C25   D T 601      -9.768   5.561   9.968  1.00 20.07     0.161 C 
ENDROOT
BRANCH   1  13
HETATM   13  N13   D T 601      -9.847   1.326   7.661  1.00 20.14    -0.188 N 
HETATM   14 1H13   D T 601     -10.714   1.622   7.607  1.00 24.16     0.184 HD
BRANCH  13  15
HETATM   15  C12   D T 601      -9.709  -0.044   7.730  1.00 24.69     0.049 A 
HETATM   16  C11   D T 601     -10.635  -0.816   6.981  1.00 26.89     0.033 A 
HETATM   17  C10   D T 601     -10.556  -2.225   6.979  1.00 28.95     0.039 A 
HETATM   18  C09   D T 601      -9.537  -2.873   7.711  1.00 30.95     0.069 A 
HETATM   19  C35   D T 601      -8.602  -2.107   8.429  1.00 28.80     0.039 A 
HETATM   20  C34   D T 601      -8.700  -0.711   8.441  1.00 26.81     0.033 A 
BRANCH  18  21
HETATM   21  O08   D T 601      -9.409  -4.218   7.690  1.00 36.09    -0.350 OA
BRANCH  21  22
HETATM   22  C07   D T 601      -8.548  -4.773   8.722  1.00 42.63     0.195 C 
BRANCH  22  23
HETATM   23  C06   D T 601      -7.192  -5.200   8.077  1.00 46.85     0.143 C 
BRANCH  23  24
HETATM   24  N03   D T 601      -5.979  -4.836   8.904  1.00 51.06    -0.411 N 
BRANCH  24  25
HETATM   25  C02   D T 601      -4.982  -3.775   8.449  1.00 53.85     0.112 C 
HETATM   26  C01   D T 601      -4.975  -2.386   9.171  1.00 52.69     0.026 C 
ENDBRANCH  24  25
BRANCH  24  27
HETATM   27  C04   D T 601      -5.874  -5.482  10.260  1.00 47.80     0.112 C 
HETATM   28  C05   D T 601      -5.802  -7.033  10.338  1.00 44.89     0.026 C 
ENDBRANCH  24  27
ENDBRANCH  23  24
ENDBRANCH  22  23
ENDBRANCH  21  22
ENDBRANCH  18  21
ENDBRANCH  13  15
ENDBRANCH   1  13
BRANCH   8  29
HETATM   29  C26   D T 601      -5.467   7.628   8.563  1.00 21.63     0.023 A 
HETATM   30  C27   D T 601      -4.379   7.609   9.479  1.00 22.75     0.046 A 
HETATM   31 CL28   D T 601      -4.199   6.327  10.562  1.00 22.59    -0.083 Cl
HETATM   32  C29   D T 601      -3.439   8.671   9.544  1.00 24.08     0.025 A 
HETATM   33  C30   D T 601      -3.552   9.758   8.650  1.00 25.63     0.003 A 
HETATM   34  C31   D T 601      -4.604   9.782   7.724  1.00 25.41     0.025 A 
HETATM   35  C32   D T 601      -5.553   8.729   7.681  1.00 23.77     0.046 A 
HETATM   36 CL33   D T 601      -6.804   8.821   6.545  1.00 25.94    -0.083 Cl
ENDBRANCH   8  29
TORSDOF 9
ENDMDL
MODEL 2
REMARK VINA RESULT:    -8.261      2.334      3.785
REMARK INTER + INTRA:         -13.761
REMARK INTER:                 -13.350
REMARK INTRA:                  -0.411
REMARK UNBOUND:                -1.154
REMARK  9 active torsions:
REMARK  status: ('A' for Active; 'I' for Inactive)
REMARK    1  A    between atoms: C02_2  and  N03_3 
REMARK    2  A    between atoms: N03_3  and  C04_4 
REMARK    3  A    between atoms: N03_3  and  C06_6 
REMARK    4  A    between atoms: C06_6  and  C07_7 
REMARK    5  A    between atoms: C07_7  and  O08_8 
REMARK    6  A    between atoms: O08_8  and  C09_9 
REMARK    7  A    between atoms: C12_12  and  N13_13 
REMARK    8  A    between atoms: N13_13  and  C14_14 
REMARK    9  A    between atoms: C21_21  and  C26_26 
ROOT
HETATM    1  C14   D T 601      -9.552  -0.482   7.267  1.00 17.92     0.728 A 
HETATM    2  N15   D T 601      -8.665  -0.067   8.193  1.00 19.07    -0.044 NA
HETATM    3  C16   D T 601      -8.361   1.217   8.428  1.00 18.16     0.163 A 
HETATM    4  C17   D T 601      -8.986   2.188   7.644  1.00 16.80     0.030 A 
HETATM    5  C18   D T 601      -9.874   1.764   6.654  1.00 18.08     0.151 A 
HETATM    6  N19   D T 601     -10.132   0.450   6.491  1.00 16.91    -0.074 NA
HETATM    7  C20   D T 601      -8.681   3.549   7.846  1.00 17.65     0.034 A 
HETATM    8  C21   D T 601      -7.770   3.926   8.846  1.00 18.53     0.047 A 
HETATM    9  C22   D T 601      -7.164   2.898   9.608  1.00 19.48     0.260 A 
HETATM   10  O23   D T 601      -6.337   3.292  10.456  1.00 21.52    -0.267 OA
HETATM   11  N24   D T 601      -7.465   1.563   9.409  1.00 19.49    -0.301 N 
HETATM   12  C25   D T 601      -6.877   0.492  10.197  1.00 20.07     0.161 C 
ENDROOT
BRANCH   1  13
HETATM   13  N13   D T 601      -9.802  -1.792   7.116  1.00 20.14    -0.188 N 
HETATM   14 1H13   D T 601     -10.418  -1.992   6.467  1.00 24.16     0.184 HD
BRANCH  13  15
HETATM   15  C12   D T 601      -9.286  -2.886   7.777  1.00 24.69     0.049 A 
HETATM   16  C11   D T 601      -9.500  -4.153   7.174  1.00 26.89     0.033 A 
HETATM   17  C10   D T 601      -8.989  -5.326   7.772  1.00 28.95     0.039 A 
HETATM   18  C09   D T 601      -8.245  -5.237   8.968  1.00 30.95     0.069 A 
HETATM   19  C35   D T 601      -8.008  -3.979   9.550  1.00 28.80     0.039 A 
HETATM   20  C34   D T 601      -8.534  -2.825   8.961  1.00 26.81     0.033 A 
BRANCH  18  21
HETATM   21  O08   D T 601      -7.706  -6.338   9.538  1.00 36.09    -0.350 OA
BRANCH  21  22
HETATM   22  C07   D T 601      -6.311  -6.211   9.930  1.00 42.63     0.195 C 
BRANCH  22  23
HETATM   23  C06   D T 601      -5.790  -7.602  10.410  1.00 46.85     0.143 C 
BRANCH  23  24
HETATM   24  N03   D T 601      -4.394  -7.567  10.991  1.00 51.06    -0.411 N 
BRANCH  24  25
HETATM   25  C02   D T 601      -3.537  -8.823  11.107  1.00 53.85     0.112 C 
HETATM   26  C01   D T 601      -2.177  -8.884  10.336  1.00 52.69     0.026 C 
ENDBRANCH  24  25
BRANCH  24  27
HETATM   27  C04   D T 601      -3.844  -6.207  11.331  1.00 47.80     0.112 C 
HETATM   28  C05   D T 601      -3.916  -5.727  12.808  1.00 44.89     0.026 C 
ENDBRANCH  24  27
ENDBRANCH  23  24
ENDBRANCH  22  23
ENDBRANCH  21  22
ENDBRANCH  18  21
ENDBRANCH  13  15
ENDBRANCH   1  13
BRANCH   8  29
HETATM   29  C26   D T 601      -7.459   5.304   9.082  1.00 21.63     0.023 A 
HETATM   30  C27   D T 601      -6.257   5.866   8.568  1.00 22.75     0.046 A 
HETATM   31 CL28   D T 601      -5.162   4.903   7.718  1.00 22.59    -0.083 Cl
HETATM   32  C29   D T 601      -5.920   7.228   8.781  1.00 24.08     0.025 A 
HETATM   33  C30   D T 601      -6.814   8.068   9.481  1.00 25.63     0.003 A 
HETATM   34  C31   D T 601      -8.013   7.537   9.974  1.00 25.41     0.025 A 
HETATM   35  C32   D T 601      -8.334   6.170   9.779  1.00 23.77     0.046 A 
HETATM   36 CL33   D T 601      -9.793   5.588  10.406  1.00 25.94    -0.083 Cl
ENDBRANCH   8  29
TORSDOF 9
ENDMDL
MODEL 3
REMARK VINA RESULT:    -8.245      2.376      3.794
REMARK INTER + INTRA:         -13.737
REMARK INTER:                 -13.316
REMARK INTRA:                  -0.421
REMARK UNBOUND:                -1.154
REMARK  9 active torsions:
REMARK  status: ('A' for Active; 'I' for Inactive)
REMARK    1  A    between atoms: C02_2  and  N03_3 
REMARK    2  A    between atoms: N03_3  and  C04_4 
REMARK    3  A    between atoms: N03_3  and  C06_6 
REMARK    4  A    between atoms: C06_6  and  C07_7 
REMARK    5  A    between atoms: C07_7  and  O08_8 
REMARK    6  A    between atoms: O08_8  and  C09_9 
REMARK    7  A    between atoms: C12_12  and  N13_13 
REMARK    8  A    between atoms: N13_13  and  C14_14 
REMARK    9  A    between atoms: C21_21  and  C26_26 
ROOT
HETATM    1  C14   D T 601      -9.502  -0.576   7.347  1.00 17.92     0.728 A 
HETATM    2  N15   D T 601      -8.639  -0.138   8.285  1.00 19.07    -0.044 NA
HETATM    3  C16   D T 601      -8.348   1.152   8.501  1.00 18.16     0.163 A 
HETATM    4  C17   D T 601      -8.959   2.104   7.683  1.00 16.80     0.030 A 
HETATM    5  C18   D T 601      -9.822   1.655   6.682  1.00 18.08     0.151 A 
HETATM    6  N19   D T 601     -10.070   0.337   6.540  1.00 16.91    -0.074 NA
HETATM    7  C20   D T 601      -8.666   3.471   7.864  1.00 17.65     0.034 A 
HETATM    8  C21   D T 601      -7.780   3.873   8.876  1.00 18.53     0.047 A 
HETATM    9  C22   D T 601      -7.186   2.864   9.672  1.00 19.48     0.260 A 
HETATM   10  O23   D T 601      -6.381   3.280  10.531  1.00 21.52    -0.267 OA
HETATM   11  N24   D T 601      -7.475   1.523   9.494  1.00 19.49    -0.301 N 
HETATM   12  C25   D T 601      -6.900   0.471  10.317  1.00 20.07     0.161 C 
ENDROOT
BRANCH   1  13
HETATM   13  N13   D T 601      -9.742  -1.890   7.218  1.00 20.14    -0.188 N 
HETATM   14 1H13   D T 601     -10.380  -2.103   6.593  1.00 24.16     0.184 HD
BRANCH  13  15
HETATM   15  C12   D T 601      -9.189  -2.972   7.868  1.00 24.69     0.049 A 
HETATM   16  C11   D T 601      -9.449  -4.251   7.312  1.00 26.89     0.033 A 
HETATM   17  C10   D T 601      -8.906  -5.414   7.902  1.00 28.95     0.039 A 
HETATM   18  C09   D T 601      -8.082  -5.302   9.043  1.00 30.95     0.069 A 
HETATM   19  C35   D T 601      -7.800  -4.033   9.577  1.00 28.80     0.039 A 
HETATM   20  C34   D T 601      -8.359  -2.888   8.997  1.00 26.81     0.033 A 
BRANCH  18  21
HETATM   21  O08   D T 601      -7.512  -6.393   9.601  1.00 36.09    -0.350 OA
BRANCH  21  22
HETATM   22  C07   D T 601      -6.119  -6.234   9.986  1.00 42.63     0.195 C 
BRANCH  22  23
HETATM   23  C06   D T 601      -5.566  -7.610  10.473  1.00 46.85     0.143 C 
BRANCH  23  24
HETATM   24  N03   D T 601      -4.186  -7.533  11.086  1.00 51.06    -0.411 N 
BRANCH  24  25
HETATM   25  C02   D T 601      -3.592  -6.217  11.576  1.00 53.85     0.112 C 
HETATM   26  C01   D T 601      -3.819  -5.794  13.066  1.00 52.69     0.026 C 
ENDBRANCH  24  25
BRANCH  24  27
HETATM   27  C04   D T 601      -3.476  -8.844  11.304  1.00 47.80     0.112 C 
HETATM   28  C05   D T 601      -2.290  -9.209  10.368  1.00 44.89     0.026 C 
ENDBRANCH  24  27
ENDBRANCH  23  24
ENDBRANCH  22  23
ENDBRANCH  21  22
ENDBRANCH  18  21
ENDBRANCH  13  15
ENDBRANCH   1  13
BRANCH   8  29
HETATM   29  C26   D T 601      -7.482   5.257   9.092  1.00 21.63     0.023 A 
HETATM   30  C27   D T 601      -8.374   6.074   9.841  1.00 22.75     0.046 A 
HETATM   31 CL28   D T 601      -9.818   5.435  10.437  1.00 22.59    -0.083 Cl
HETATM   32  C29   D T 601      -8.108   7.449  10.076  1.00 24.08     0.025 A 
HETATM   33  C30   D T 601      -6.907   8.019   9.599  1.00 25.63     0.003 A 
HETATM   34  C31   D T 601      -6.005   7.222   8.881  1.00 25.41     0.025 A 
HETATM   35  C32   D T 601      -6.288   5.856   8.628  1.00 23.77     0.046 A 
HETATM   36 CL33   D T 601      -5.162   4.951   7.748  1.00 25.94    -0.083 Cl
ENDBRANCH   8  29
TORSDOF 9
ENDMDL
MODEL 4
REMARK VINA RESULT:    -8.068      2.635      4.414
REMARK INTER + INTRA:         -13.468
REMARK INTER:                 -12.907
REMARK INTRA:                  -0.561
REMARK UNBOUND:                -1.154
REMARK  9 active torsions:
REMARK  status: ('A' for Active; 'I' for Inactive)
REMARK    1  A    between atoms: C02_2  and  N03_3 
REMARK    2  A    between atoms: N03_3  and  C04_4 
REMARK    3  A    between atoms: N03_3  and  C06_6 
REMARK    4  A    between atoms: C06_6  and  C07_7 
REMARK    5  A    between atoms: C07_7  and  O08_8 
REMARK    6  A    between atoms: O08_8  and  C09_9 
REMARK    7  A    between atoms: C12_12  and  N13_13 
REMARK    8  A    between atoms: N13_13  and  C14_14 
REMARK    9  A    between atoms: C21_21  and  C26_26 
ROOT
HETATM    1  C14   D T 601      -9.465  -1.203   7.404  1.00 17.92     0.728 A 
HETATM    2  N15   D T 601      -8.566  -0.648   8.243  1.00 19.07    -0.044 NA
HETATM    3  C16   D T 601      -8.440   0.669   8.452  1.00 18.16     0.163 A 
HETATM    4  C17   D T 601      -9.277   1.526   7.736  1.00 16.80     0.030 A 
HETATM    5  C18   D T 601     -10.181   0.961   6.834  1.00 18.08     0.151 A 
HETATM    6  N19   D T 601     -10.252  -0.378   6.692  1.00 16.91    -0.074 NA
HETATM    7  C20   D T 601      -9.165   2.920   7.913  1.00 17.65     0.034 A 
HETATM    8  C21   D T 601      -8.230   3.441   8.821  1.00 18.53     0.047 A 
HETATM    9  C22   D T 601      -7.404   2.525   9.517  1.00 19.48     0.260 A 
HETATM   10  O23   D T 601      -6.569   3.049  10.283  1.00 21.52    -0.267 OA
HETATM   11  N24   D T 601      -7.517   1.158   9.344  1.00 19.49    -0.301 N 
HETATM   12  C25   D T 601      -6.700   0.196  10.067  1.00 20.07     0.161 C 
ENDROOT
BRANCH   1  13
HETATM   13  N13   D T 601      -9.527  -2.537   7.274  1.00 20.14    -0.188 N 
HETATM   14 1H13   D T 601     -10.050  -2.830   6.580  1.00 24.16     0.184 HD
BRANCH  13  15
HETATM   15  C12   D T 601      -8.933  -3.540   8.011  1.00 24.69     0.049 A 
HETATM   16  C11   D T 601      -9.449  -4.850   7.835  1.00 26.89     0.033 A 
HETATM   17  C10   D T 601      -8.889  -5.940   8.536  1.00 28.95     0.039 A 
HETATM   18  C09   D T 601      -7.795  -5.730   9.403  1.00 30.95     0.069 A 
HETATM   19  C35   D T 601      -7.265  -4.437   9.555  1.00 28.80     0.039 A 
HETATM   20  C34   D T 601      -7.839  -3.359   8.871  1.00 26.81     0.033 A 
BRANCH  18  21
HETATM   21  O08   D T 601      -7.210  -6.762  10.050  1.00 36.09    -0.350 OA
BRANCH  21  22
HETATM   22  C07   D T 601      -5.766  -6.664  10.191  1.00 42.63     0.195 C 
BRANCH  22  23
HETATM   23  C06   D T 601      -5.165  -8.103  10.270  1.00 46.85     0.143 C 
BRANCH  23  24
HETATM   24  N03   D T 601      -4.076  -8.256  11.309  1.00 51.06    -0.411 N 
BRANCH  24  25
HETATM   25  C02   D T 601      -3.061  -9.393  11.251  1.00 53.85     0.112 C 
HETATM   26  C01   D T 601      -1.971  -9.376  10.128  1.00 52.69     0.026 C 
ENDBRANCH  24  25
BRANCH  24  27
HETATM   27  C04   D T 601      -3.967  -7.157  12.332  1.00 47.80     0.112 C 
HETATM   28  C05   D T 601      -2.657  -6.321  12.383  1.00 44.89     0.026 C 
ENDBRANCH  24  27
ENDBRANCH  23  24
ENDBRANCH  22  23
ENDBRANCH  21  22
ENDBRANCH  18  21
ENDBRANCH  13  15
ENDBRANCH   1  13
BRANCH   8  29
HETATM   29  C26   D T 601      -8.110   4.852   9.032  1.00 21.63     0.023 A 
HETATM   30  C27   D T 601      -8.974   5.516   9.948  1.00 22.75     0.046 A 
HETATM   31 CL28   D T 601     -10.181   4.657  10.756  1.00 22.59    -0.083 Cl
HETATM   32  C29   D T 601      -8.880   6.913  10.184  1.00 24.08     0.025 A 
HETATM   33  C30   D T 601      -7.878   7.665   9.532  1.00 25.63     0.003 A 
HETATM   34  C31   D T 601      -7.004   7.024   8.645  1.00 25.41     0.025 A 
HETATM   35  C32   D T 601      -7.117   5.633   8.395  1.00 23.77     0.046 A 
HETATM   36 CL33   D T 601      -6.036   4.920   7.308  1.00 25.94    -0.083 Cl
ENDBRANCH   8  29
TORSDOF 9
ENDMDL
MODEL 5
REMARK VINA RESULT:    -7.710      2.638      4.583
REMARK INTER + INTRA:         -12.920
REMARK INTER:                 -11.595
REMARK INTRA:                  -1.325
REMARK UNBOUND:                -1.154
REMARK  9 active torsions:
REMARK  status: ('A' for Active; 'I' for Inactive)
REMARK    1  A    between atoms: C02_2  and  N03_3 
REMARK    2  A    between atoms: N03_3  and  C04_4 
REMARK    3  A    between atoms: N03_3  and  C06_6 
REMARK    4  A    between atoms: C06_6  and  C07_7 
REMARK    5  A    between atoms: C07_7  and  O08_8 
REMARK    6  A    between atoms: O08_8  and  C09_9 
REMARK    7  A    between atoms: C12_12  and  N13_13 
REMARK    8  A    between atoms: N13_13  and  C14_14 
REMARK    9  A    between atoms: C21_21  and  C26_26 
ROOT
HETATM    1  C14   D T 601      -4.333   0.242  10.374  1.00 17.92     0.728 A 
HETATM    2  N15   D T 601      -4.981   0.927   9.410  1.00 19.07    -0.044 NA
HETATM    3  C16   D T 601      -5.068   2.263   9.360  1.00 18.16     0.163 A 
HETATM    4  C17   D T 601      -4.472   2.994  10.389  1.00 16.80     0.030 A 
HETATM    5  C18   D T 601      -3.836   2.290  11.414  1.00 18.08     0.151 A 
HETATM    6  N19   D T 601      -3.783   0.943  11.381  1.00 16.91    -0.074 NA
HETATM    7  C20   D T 601      -4.557   4.401  10.385  1.00 17.65     0.034 A 
HETATM    8  C21   D T 601      -5.220   5.063   9.339  1.00 18.53     0.047 A 
HETATM    9  C22   D T 601      -5.811   4.270   8.325  1.00 19.48     0.260 A 
HETATM   10  O23   D T 601      -6.416   4.913   7.443  1.00 21.52    -0.267 OA
HETATM   11  N24   D T 601      -5.725   2.890   8.330  1.00 19.49    -0.301 N 
HETATM   12  C25   D T 601      -6.298   2.056   7.286  1.00 20.07     0.161 C 
ENDROOT
BRANCH   1  13
HETATM   13  N13   D T 601      -4.285  -1.098  10.329  1.00 20.14    -0.188 N 
HETATM   14 1H13   D T 601      -3.513  -1.465  10.663  1.00 24.16     0.184 HD
BRANCH  13  15
HETATM   15  C12   D T 601      -5.205  -2.014   9.864  1.00 24.69     0.049 A 
HETATM   16  C11   D T 601      -6.532  -1.887  10.351  1.00 26.89     0.033 A 
HETATM   17  C10   D T 601      -7.543  -2.771   9.913  1.00 28.95     0.039 A 
HETATM   18  C09   D T 601      -7.237  -3.776   8.971  1.00 30.95     0.069 A 
HETATM   19  C35   D T 601      -5.928  -3.884   8.467  1.00 28.80     0.039 A 
HETATM   20  C34   D T 601      -4.929  -3.016   8.921  1.00 26.81     0.033 A 
BRANCH  18  21
HETATM   21  O08   D T 601      -8.193  -4.606   8.500  1.00 36.09    -0.350 OA
BRANCH  21  22
HETATM   22  C07   D T 601      -9.524  -4.027   8.409  1.00 42.63     0.195 C 
BRANCH  22  23
HETATM   23  C06   D T 601      -9.685  -3.338   7.017  1.00 46.85     0.143 C 
BRANCH  23  24
HETATM   24  N03   D T 601     -10.476  -2.051   7.059  1.00 51.06    -0.411 N 
BRANCH  24  25
HETATM   25  C02   D T 601     -11.956  -2.025   7.428  1.00 53.85     0.112 C 
HETATM   26  C01   D T 601     -12.531  -0.767   8.159  1.00 52.69     0.026 C 
ENDBRANCH  24  25
BRANCH  24  27
HETATM   27  C04   D T 601      -9.700  -0.779   6.842  1.00 47.80     0.112 C 
HETATM   28  C05   D T 601      -8.983  -0.133   8.061  1.00 44.89     0.026 C 
ENDBRANCH  24  27
ENDBRANCH  23  24
ENDBRANCH  22  23
ENDBRANCH  21  22
ENDBRANCH  18  21
ENDBRANCH  13  15
ENDBRANCH   1  13
BRANCH   8  29
HETATM   29  C26   D T 601      -5.303   6.492   9.303  1.00 21.63     0.023 A 
HETATM   30  C27   D T 601      -6.461   7.156   9.797  1.00 22.75     0.046 A 
HETATM   31 CL28   D T 601      -7.769   6.264  10.383  1.00 22.59    -0.083 Cl
HETATM   32  C29   D T 601      -6.575   8.571   9.779  1.00 24.08     0.025 A 
HETATM   33  C30   D T 601      -5.499   9.352   9.304  1.00 25.63     0.003 A 
HETATM   34  C31   D T 601      -4.341   8.716   8.835  1.00 25.41     0.025 A 
HETATM   35  C32   D T 601      -4.243   7.302   8.833  1.00 23.77     0.046 A 
HETATM   36 CL33   D T 601      -2.822   6.595   8.247  1.00 25.94    -0.083 Cl
ENDBRANCH   8  29
TORSDOF 9
ENDMDL
MODEL 6
REMARK VINA RESULT:    -7.702      2.910      4.744
REMARK INTER + INTRA:         -12.909
REMARK INTER:                 -12.359
REMARK INTRA:                  -0.550
REMARK UNBOUND:                -1.154
REMARK  9 active torsions:
REMARK  status: ('A' for Active; 'I' for Inactive)
REMARK    1  A    between atoms: C02_2  and  N03_3 
REMARK    2  A    between atoms: N03_3  and  C04_4 
REMARK    3  A    between atoms: N03_3  and  C06_6 
REMARK    4  A    between atoms: C06_6  and  C07_7 
REMARK    5  A    between atoms: C07_7  and  O08_8 
REMARK    6  A    between atoms: O08_8  and  C09_9 
REMARK    7  A    between atoms: C12_12  and  N13_13 
REMARK    8  A    between atoms: N13_13  and  C14_14 
REMARK    9  A    between atoms: C21_21  and  C26_26 
ROOT
HETATM    1  C14   D T 601      -9.133  -1.557   7.810  1.00 17.92     0.728 A 
HETATM    2  N15   D T 601      -8.266  -0.877   8.587  1.00 19.07    -0.044 NA
HETATM    3  C16   D T 601      -8.237   0.458   8.699  1.00 18.16     0.163 A 
HETATM    4  C17   D T 601      -9.147   1.195   7.940  1.00 16.80     0.030 A 
HETATM    5  C18   D T 601     -10.019   0.500   7.100  1.00 18.08     0.151 A 
HETATM    6  N19   D T 601      -9.991  -0.848   7.056  1.00 16.91    -0.074 NA
HETATM    7  C20   D T 601      -9.137   2.603   8.013  1.00 17.65     0.034 A 
HETATM    8  C21   D T 601      -8.231   3.257   8.862  1.00 18.53     0.047 A 
HETATM    9  C22   D T 601      -7.328   2.459   9.605  1.00 19.48     0.260 A 
HETATM   10  O23   D T 601      -6.524   3.099  10.314  1.00 21.52    -0.267 OA
HETATM   11  N24   D T 601      -7.339   1.078   9.533  1.00 19.49    -0.301 N 
HETATM   12  C25   D T 601      -6.442   0.236  10.307  1.00 20.07     0.161 C 
ENDROOT
BRANCH   1  13
HETATM   13  N13   D T 601      -9.096  -2.898   7.778  1.00 20.14    -0.188 N 
HETATM   14 1H13   D T 601      -9.688  -3.284   7.192  1.00 24.16     0.184 HD
BRANCH  13  15
HETATM   15  C12   D T 601      -8.314  -3.792   8.479  1.00 24.69     0.049 A 
HETATM   16  C11   D T 601      -8.760  -5.139   8.511  1.00 26.89     0.033 A 
HETATM   17  C10   D T 601      -8.012  -6.125   9.189  1.00 28.95     0.039 A 
HETATM   18  C09   D T 601      -6.801  -5.774   9.825  1.00 30.95     0.069 A 
HETATM   19  C35   D T 601      -6.344  -4.445   9.769  1.00 28.80     0.039 A 
HETATM   20  C34   D T 601      -7.102  -3.471   9.111  1.00 26.81     0.033 A 
BRANCH  18  21
HETATM   21  O08   D T 601      -6.041  -6.705  10.443  1.00 36.09    -0.350 OA
BRANCH  21  22
HETATM   22  C07   D T 601      -4.690  -6.282  10.773  1.00 42.63     0.195 C 
BRANCH  22  23
HETATM   23  C06   D T 601      -3.869  -7.523  11.243  1.00 46.85     0.143 C 
BRANCH  23  24
HETATM   24  N03   D T 601      -3.908  -7.753  12.737  1.00 51.06    -0.411 N 
BRANCH  24  25
HETATM   25  C02   D T 601      -3.284  -6.769  13.722  1.00 53.85     0.112 C 
HETATM   26  C01   D T 601      -1.944  -6.059  13.334  1.00 52.69     0.026 C 
ENDBRANCH  24  25
BRANCH  24  27
HETATM   27  C04   D T 601      -4.707  -8.938  13.212  1.00 47.80     0.112 C 
HETATM   28  C05   D T 601      -4.061  -9.898  14.251  1.00 44.89     0.026 C 
ENDBRANCH  24  27
ENDBRANCH  23  24
ENDBRANCH  22  23
ENDBRANCH  21  22
ENDBRANCH  18  21
ENDBRANCH  13  15
ENDBRANCH   1  13
BRANCH   8  29
HETATM   29  C26   D T 601      -8.215   4.685   8.967  1.00 21.63     0.023 A 
HETATM   30  C27   D T 601      -7.272   5.449   8.224  1.00 22.75     0.046 A 
HETATM   31 CL28   D T 601      -6.129   4.677   7.251  1.00 22.59    -0.083 Cl
HETATM   32  C29   D T 601      -7.230   6.866   8.303  1.00 24.08     0.025 A 
HETATM   33  C30   D T 601      -8.175   7.549   9.101  1.00 25.63     0.003 A 
HETATM   34  C31   D T 601      -9.126   6.814   9.821  1.00 25.41     0.025 A 
HETATM   35  C32   D T 601      -9.147   5.398   9.757  1.00 23.77     0.046 A 
HETATM   36 CL33   D T 601     -10.317   4.569  10.656  1.00 25.94    -0.083 Cl
ENDBRANCH   8  29
TORSDOF 9
ENDMDL
MODEL 7
REMARK VINA RESULT:    -7.403      1.568      2.572
REMARK INTER + INTRA:         -12.452
REMARK INTER:                 -11.468
REMARK INTRA:                  -0.985
REMARK UNBOUND:                -1.154
REMARK  9 active torsions:
REMARK  status: ('A' for Active; 'I' for Inactive)
REMARK    1  A    between atoms: C02_2  and  N03_3 
REMARK    2  A    between atoms: N03_3  and  C04_4 
REMARK    3  A    between atoms: N03_3  and  C06_6 
REMARK    4  A    between atoms: C06_6  and  C07_7 
REMARK    5  A    between atoms: C07_7  and  O08_8 
REMARK    6  A    between atoms: O08_8  and  C09_9 
REMARK    7  A    between atoms: C12_12  and  N13_13 
REMARK    8  A    between atoms: N13_13  and  C14_14 
REMARK    9  A    between atoms: C21_21  and  C26_26 
ROOT
HETATM    1  C14   D T 601      -7.730   1.449   8.270  1.00 17.92     0.728 A 
HETATM    2  N15   D T 601      -8.112   2.571   8.913  1.00 19.07    -0.044 NA
HETATM    3  C16   D T 601      -7.397   3.703   8.946  1.00 18.16     0.163 A 
HETATM    4  C17   D T 601      -6.163   3.716   8.294  1.00 16.80     0.030 A 
HETATM    5  C18   D T 601      -5.742   2.544   7.661  1.00 18.08     0.151 A 
HETATM    6  N19   D T 601      -6.529   1.449   7.665  1.00 16.91    -0.074 NA
HETATM    7  C20   D T 601      -5.371   4.881   8.320  1.00 17.65     0.034 A 
HETATM    8  C21   D T 601      -5.832   6.030   8.982  1.00 18.53     0.047 A 
HETATM    9  C22   D T 601      -7.089   5.959   9.630  1.00 19.48     0.260 A 
HETATM   10  O23   D T 601      -7.429   7.000  10.231  1.00 21.52    -0.267 OA
HETATM   11  N24   D T 601      -7.866   4.816   9.602  1.00 19.49    -0.301 N 
HETATM   12  C25   D T 601      -9.171   4.727  10.236  1.00 20.07     0.161 C 
ENDROOT
BRANCH   1  13
HETATM   13  N13   D T 601      -8.523   0.367   8.279  1.00 20.14    -0.188 N 
HETATM   14 1H13   D T 601      -9.382   0.519   7.992  1.00 24.16     0.184 HD
BRANCH  13  15
HETATM   15  C12   D T 601      -8.262  -0.935   8.649  1.00 24.69     0.049 A 
HETATM   16  C11   D T 601      -9.058  -1.942   8.042  1.00 26.89     0.033 A 
HETATM   17  C10   D T 601      -8.847  -3.304   8.349  1.00 28.95     0.039 A 
HETATM   18  C09   D T 601      -7.823  -3.670   9.249  1.00 30.95     0.069 A 
HETATM   19  C35   D T 601      -7.015  -2.675   9.828  1.00 28.80     0.039 A 
HETATM   20  C34   D T 601      -7.245  -1.327   9.534  1.00 26.81     0.033 A 
BRANCH  18  21
HETATM   21  O08   D T 601      -7.568  -4.968   9.525  1.00 36.09    -0.350 OA
BRANCH  21  22
HETATM   22  C07   D T 601      -6.195  -5.262   9.905  1.00 42.63     0.195 C 
BRANCH  22  23
HETATM   23  C06   D T 601      -6.077  -6.779  10.250  1.00 46.85     0.143 C 
BRANCH  23  24
HETATM   24  N03   D T 601      -4.695  -7.200  10.699  1.00 51.06    -0.411 N 
BRANCH  24  25
HETATM   25  C02   D T 601      -3.697  -6.203  11.278  1.00 53.85     0.112 C 
HETATM   26  C01   D T 601      -3.872  -5.732  12.760  1.00 52.69     0.026 C 
ENDBRANCH  24  25
BRANCH  24  27
HETATM   27  C04   D T 601      -4.400  -8.676  10.664  1.00 47.80     0.112 C 
HETATM   28  C05   D T 601      -4.404  -9.464  12.004  1.00 44.89     0.026 C 
ENDBRANCH  24  27
ENDBRANCH  23  24
ENDBRANCH  22  23
ENDBRANCH  21  22
ENDBRANCH  18  21
ENDBRANCH  13  15
ENDBRANCH   1  13
BRANCH   8  29
HETATM   29  C26   D T 601      -5.054   7.232   9.006  1.00 21.63     0.023 A 
HETATM   30  C27   D T 601      -5.325   8.281   8.083  1.00 22.75     0.046 A 
HETATM   31 CL28   D T 601      -6.532   8.098   6.917  1.00 22.59    -0.083 Cl
HETATM   32  C29   D T 601      -4.576   9.487   8.081  1.00 24.08     0.025 A 
HETATM   33  C30   D T 601      -3.563   9.680   9.047  1.00 25.63     0.003 A 
HETATM   34  C31   D T 601      -3.299   8.668   9.979  1.00 25.41     0.025 A 
HETATM   35  C32   D T 601      -4.034   7.456   9.960  1.00 23.77     0.046 A 
HETATM   36 CL33   D T 601      -3.661   6.271  11.108  1.00 25.94    -0.083 Cl
ENDBRANCH   8  29
TORSDOF 9
ENDMDL
MODEL 8
REMARK VINA RESULT:    -7.248      3.376      5.739
REMARK INTER + INTRA:         -12.216
REMARK INTER:                 -11.621
REMARK INTRA:                  -0.596
REMARK UNBOUND:                -1.154
REMARK  9 active torsions:
REMARK  status: ('A' for Active; 'I' for Inactive)
REMARK    1  A    between atoms: C02_2  and  N03_3 
REMARK    2  A    between atoms: N03_3  and  C04_4 
REMARK    3  A    between atoms: N03_3  and  C06_6 
REMARK    4  A    between atoms: C06_6  and  C07_7 
REMARK    5  A    between atoms: C07_7  and  O08_8 
REMARK    6  A    between atoms: O08_8  and  C09_9 
REMARK    7  A    between atoms: C12_12  and  N13_13 
REMARK    8  A    between atoms: N13_13  and  C14_14 
REMARK    9  A    between atoms: C21_21  and  C26_26 
ROOT
HETATM    1  C14   D T 601      -7.405  -2.195   9.469  1.00 17.92     0.728 A 
HETATM    2  N15   D T 601      -8.096  -1.309   8.724  1.00 19.07    -0.044 NA
HETATM    3  C16   D T 601      -7.998   0.021   8.847  1.00 18.16     0.163 A 
HETATM    4  C17   D T 601      -7.145   0.524   9.830  1.00 16.80     0.030 A 
HETATM    5  C18   D T 601      -6.458  -0.387  10.635  1.00 18.08     0.151 A 
HETATM    6  N19   D T 601      -6.604  -1.713  10.436  1.00 16.91    -0.074 NA
HETATM    7  C20   D T 601      -7.027   1.918  10.006  1.00 17.65     0.034 A 
HETATM    8  C21   D T 601      -7.749   2.795   9.181  1.00 18.53     0.047 A 
HETATM    9  C22   D T 601      -8.604   2.229   8.204  1.00 19.48     0.260 A 
HETATM   10  O23   D T 601      -9.246   3.057   7.525  1.00 21.52    -0.267 OA
HETATM   11  N24   D T 601      -8.717   0.861   8.032  1.00 19.49    -0.301 N 
HETATM   12  C25   D T 601      -9.565   0.257   7.017  1.00 20.07     0.161 C 
ENDROOT
BRANCH   1  13
HETATM   13  N13   D T 601      -7.557  -3.511   9.260  1.00 20.14    -0.188 N 
HETATM   14 1H13   D T 601      -8.286  -3.736   8.750  1.00 24.16     0.184 HD
BRANCH  13  15
HETATM   15  C12   D T 601      -6.800  -4.582   9.685  1.00 24.69     0.049 A 
HETATM   16  C11   D T 601      -5.530  -4.282  10.245  1.00 26.89     0.033 A 
HETATM   17  C10   D T 601      -4.696  -5.315  10.723  1.00 28.95     0.039 A 
HETATM   18  C09   D T 601      -5.134  -6.656  10.662  1.00 30.95     0.069 A 
HETATM   19  C35   D T 601      -6.403  -6.951  10.134  1.00 28.80     0.039 A 
HETATM   20  C34   D T 601      -7.215  -5.922   9.645  1.00 26.81     0.033 A 
BRANCH  18  21
HETATM   21  O08   D T 601      -4.376  -7.661  11.154  1.00 36.09    -0.350 OA
BRANCH  21  22
HETATM   22  C07   D T 601      -2.940  -7.484  11.002  1.00 42.63     0.195 C 
BRANCH  22  23
HETATM   23  C06   D T 601      -2.209  -8.276  12.132  1.00 46.85     0.143 C 
BRANCH  23  24
HETATM   24  N03   D T 601      -2.544  -7.801  13.528  1.00 51.06    -0.411 N 
BRANCH  24  25
HETATM   25  C02   D T 601      -2.713  -8.774  14.691  1.00 53.85     0.112 C 
HETATM   26  C01   D T 601      -1.813  -8.599  15.959  1.00 52.69     0.026 C 
ENDBRANCH  24  25
BRANCH  24  27
HETATM   27  C04   D T 601      -2.575  -6.311  13.740  1.00 47.80     0.112 C 
HETATM   28  C05   D T 601      -3.850  -5.678  14.365  1.00 44.89     0.026 C 
ENDBRANCH  24  27
ENDBRANCH  23  24
ENDBRANCH  22  23
ENDBRANCH  21  22
ENDBRANCH  18  21
ENDBRANCH  13  15
ENDBRANCH   1  13
BRANCH   8  29
HETATM   29  C26   D T 601      -7.632   4.214   9.327  1.00 21.63     0.023 A 
HETATM   30  C27   D T 601      -8.621   4.946  10.043  1.00 22.75     0.046 A 
HETATM   31 CL28   D T 601      -9.968   4.155  10.682  1.00 22.59    -0.083 Cl
HETATM   32  C29   D T 601      -8.534   6.353  10.210  1.00 24.08     0.025 A 
HETATM   33  C30   D T 601      -7.418   7.049   9.697  1.00 25.63     0.003 A 
HETATM   34  C31   D T 601      -6.422   6.341   9.010  1.00 25.41     0.025 A 
HETATM   35  C32   D T 601      -6.527   4.940   8.825  1.00 23.77     0.046 A 
HETATM   36 CL33   D T 601      -5.295   4.146   7.980  1.00 25.94    -0.083 Cl
ENDBRANCH   8  29
TORSDOF 9
ENDMDL
MODEL 9
REMARK VINA RESULT:    -7.244      3.482      5.792
REMARK INTER + INTRA:         -12.209
REMARK INTER:                 -11.831
REMARK INTRA:                  -0.378
REMARK UNBOUND:                -1.154
REMARK  9 active torsions:
REMARK  status: ('A' for Active; 'I' for Inactive)
REMARK    1  A    between atoms: C02_2  and  N03_3 
REMARK    2  A    between atoms: N03_3  and  C04_4 
REMARK    3  A    between atoms: N03_3  and  C06_6 
REMARK    4  A    between atoms: C06_6  and  C07_7 
REMARK    5  A    between atoms: C07_7  and  O08_8 
REMARK    6  A    between atoms: O08_8  and  C09_9 
REMARK    7  A    between atoms: C12_12  and  N13_13 
REMARK    8  A    between atoms: N13_13  and  C14_14 
REMARK    9  A    between atoms: C21_21  and  C26_26 
ROOT
HETATM    1  C14   D T 601      -7.445  -2.220   9.383  1.00 17.92     0.728 A 
HETATM    2  N15   D T 601      -8.191  -1.386   8.631  1.00 19.07    -0.044 NA
HETATM    3  C16   D T 601      -8.139  -0.049   8.707  1.00 18.16     0.163 A 
HETATM    4  C17   D T 601      -7.276   0.518   9.646  1.00 16.80     0.030 A 
HETATM    5  C18   D T 601      -6.532  -0.341  10.459  1.00 18.08     0.151 A 
HETATM    6  N19   D T 601      -6.634  -1.677  10.308  1.00 16.91    -0.074 NA
HETATM    7  C20   D T 601      -7.205   1.919   9.773  1.00 17.65     0.034 A 
HETATM    8  C21   D T 601      -7.984   2.741   8.942  1.00 18.53     0.047 A 
HETATM    9  C22   D T 601      -8.846   2.112   8.011  1.00 19.48     0.260 A 
HETATM   10  O23   D T 601      -9.538   2.893   7.327  1.00 21.52    -0.267 OA
HETATM   11  N24   D T 601      -8.913   0.736   7.888  1.00 19.49    -0.301 N 
HETATM   12  C25   D T 601      -9.768   0.067   6.920  1.00 20.07     0.161 C 
ENDROOT
BRANCH   1  13
HETATM   13  N13   D T 601      -7.555  -3.547   9.222  1.00 20.14    -0.188 N 
HETATM   14 1H13   D T 601      -8.261  -3.813   8.699  1.00 24.16     0.184 HD
BRANCH  13  15
HETATM   15  C12   D T 601      -6.781  -4.578   9.711  1.00 24.69     0.049 A 
HETATM   16  C11   D T 601      -5.532  -4.222  10.282  1.00 26.89     0.033 A 
HETATM   17  C10   D T 601      -4.684  -5.211  10.825  1.00 28.95     0.039 A 
HETATM   18  C09   D T 601      -5.089  -6.564  10.819  1.00 30.95     0.069 A 
HETATM   19  C35   D T 601      -6.339  -6.914  10.279  1.00 28.80     0.039 A 
HETATM   20  C34   D T 601      -7.164  -5.929   9.726  1.00 26.81     0.033 A 
BRANCH  18  21
HETATM   21  O08   D T 601      -4.318  -7.526  11.372  1.00 36.09    -0.350 OA
BRANCH  21  22
HETATM   22  C07   D T 601      -4.344  -8.809  10.688  1.00 42.63     0.195 C 
BRANCH  22  23
HETATM   23  C06   D T 601      -3.380  -9.794  11.420  1.00 46.85     0.143 C 
BRANCH  23  24
HETATM   24  N03   D T 601      -2.113 -10.097  10.652  1.00 51.06    -0.411 N 
BRANCH  24  25
HETATM   25  C02   D T 601      -1.320  -9.005   9.941  1.00 53.85     0.112 C 
HETATM   26  C01   D T 601       0.044  -8.542  10.552  1.00 52.69     0.026 C 
ENDBRANCH  24  25
BRANCH  24  27
HETATM   27  C04   D T 601      -1.603 -11.512  10.731  1.00 47.80     0.112 C 
HETATM   28  C05   D T 601      -0.900 -12.116   9.483  1.00 44.89     0.026 C 
ENDBRANCH  24  27
ENDBRANCH  23  24
ENDBRANCH  22  23
ENDBRANCH  21  22
ENDBRANCH  18  21
ENDBRANCH  13  15
ENDBRANCH   1  13
BRANCH   8  29
HETATM   29  C26   D T 601      -7.915   4.168   9.039  1.00 21.63     0.023 A 
HETATM   30  C27   D T 601      -6.926   4.889   8.314  1.00 22.75     0.046 A 
HETATM   31 CL28   D T 601      -5.790   4.066   7.374  1.00 22.59    -0.083 Cl
HETATM   32  C29   D T 601      -6.831   6.304   8.384  1.00 24.08     0.025 A 
HETATM   33  C30   D T 601      -7.767   7.029   9.153  1.00 25.63     0.003 A 
HETATM   34  C31   D T 601      -8.764   6.337   9.855  1.00 25.41     0.025 A 
HETATM   35  C32   D T 601      -8.838   4.922   9.801  1.00 23.77     0.046 A 
HETATM   36 CL33   D T 601     -10.060   4.147  10.677  1.00 25.94    -0.083 Cl
ENDBRANCH   8  29
TORSDOF 9
ENDMDL
