MODEL 1
REMARK VINA RESULT:      -8.2      0.000      0.000
REMARK  2 active torsions:
REMARK  status: ('A' for Active; 'I' for Inactive)
REMARK    1  A    between atoms: C5_4  and  O7_13 
REMARK    2  A    between atoms: C8_10  and  O7_13 
ROOT
HETATM    1  O7    D T 502     -44.469  49.530 -13.541  1.00 23.89    -0.304 OA
ENDROOT
BRANCH   1   2
HETATM    2  C5    D T 502     -45.484  48.679 -13.961  1.00 20.81     0.125 A 
HETATM    3  C6    D T 502     -46.794  48.901 -13.521  1.00 21.92     0.154 A 
HETATM    4  C1    D T 502     -47.814  48.075 -13.969  1.00 19.69     0.041 A 
HETATM    5  O17   D T 502     -47.072  49.909 -12.649  1.00 20.99    -0.188 OA
HETATM    6  C2    D T 502     -47.513  47.038 -14.827  1.00 21.88     0.060 A 
HETATM    7  C3    D T 502     -46.228  46.801 -15.253  1.00 22.84     0.014 A 
HETATM    8 CL14   D T 502     -48.800  46.007 -15.399  1.00 24.13    -0.082 Cl
HETATM    9  C4    D T 502     -45.209  47.629 -14.821  1.00 24.38     0.028 A 
ENDBRANCH   1   2
BRANCH   1  10
HETATM   10  C8    D T 502     -43.210  48.995 -13.276  1.00 25.40     0.111 A 
HETATM   11  C9    D T 502     -43.056  48.171 -12.166  1.00 25.57     0.081 A 
HETATM   12  C10   D T 502     -41.825  47.666 -11.814  1.00 22.48     0.025 A 
HETATM   13 CL16   D T 502     -44.405  47.870 -11.122  1.00 35.41    -0.080 Cl
HETATM   14  C11   D T 502     -40.733  48.015 -12.569  1.00 29.03     0.059 A 
HETATM   15  C12   D T 502     -40.850  48.799 -13.697  1.00 24.01     0.013 A 
HETATM   16 CL15   D T 502     -39.151  47.550 -12.010  1.00 33.00    -0.082 Cl
HETATM   17  C13   D T 502     -42.097  49.291 -14.056  1.00 27.52     0.026 A 
ENDBRANCH   1  10
TORSDOF 2
ENDMDL
MODEL 2
REMARK VINA RESULT:      -8.0      1.152      5.693
REMARK  2 active torsions:
REMARK  status: ('A' for Active; 'I' for Inactive)
REMARK    1  A    between atoms: C5_4  and  O7_13 
REMARK    2  A    between atoms: C8_10  and  O7_13 
ROOT
HETATM    1  O7    D T 502     -44.671  49.386 -13.195  1.00 23.89    -0.304 OA
ENDROOT
BRANCH   1   2
HETATM    2  C5    D T 502     -43.379  48.950 -12.928  1.00 20.81     0.125 A 
HETATM    3  C6    D T 502     -43.169  47.986 -11.935  1.00 21.92     0.154 A 
HETATM    4  C1    D T 502     -41.884  47.524 -11.693  1.00 19.69     0.041 A 
HETATM    5  O17   D T 502     -44.211  47.511 -11.198  1.00 20.99    -0.188 OA
HETATM    6  C2    D T 502     -40.835  48.038 -12.425  1.00 21.88     0.060 A 
HETATM    7  C3    D T 502     -41.027  48.996 -13.391  1.00 22.84     0.014 A 
HETATM    8 CL14   D T 502     -39.220  47.445 -12.127  1.00 24.13    -0.082 Cl
HETATM    9  C4    D T 502     -42.307  49.451 -13.647  1.00 24.38     0.028 A 
ENDBRANCH   1   2
BRANCH   1  10
HETATM   10  C8    D T 502     -45.528  48.551 -13.908  1.00 25.40     0.111 A 
HETATM   11  C9    D T 502     -46.782  48.270 -13.374  1.00 25.57     0.081 A 
HETATM   12  C10   D T 502     -47.648  47.400 -13.997  1.00 22.48     0.025 A 
HETATM   13 CL16   D T 502     -47.226  48.917 -11.829  1.00 35.41    -0.080 Cl
HETATM   14  C11   D T 502     -47.240  46.786 -15.155  1.00 29.03     0.059 A 
HETATM   15  C12   D T 502     -46.020  47.066 -15.734  1.00 24.01     0.013 A 
HETATM   16 CL15   D T 502     -48.243  45.535 -15.832  1.00 33.00    -0.082 Cl
HETATM   17  C13   D T 502     -45.159  47.956 -15.111  1.00 27.52     0.026 A 
ENDBRANCH   1  10
TORSDOF 2
ENDMDL
MODEL 3
REMARK VINA RESULT:      -7.8      3.774      6.146
REMARK  2 active torsions:
REMARK  status: ('A' for Active; 'I' for Inactive)
REMARK    1  A    between atoms: C5_4  and  O7_13 
REMARK    2  A    between atoms: C8_10  and  O7_13 
ROOT
HETATM    1  O7    D T 502     -43.806  48.361 -15.371  1.00 23.89    -0.304 OA
ENDROOT
BRANCH   1   2
HETATM    2  C5    D T 502     -42.734  48.159 -14.511  1.00 20.81     0.125 A 
HETATM    3  C6    D T 502     -42.391  46.857 -14.129  1.00 21.92     0.154 A 
HETATM    4  C1    D T 502     -41.299  46.653 -13.299  1.00 19.69     0.041 A 
HETATM    5  O17   D T 502     -43.129  45.794 -14.552  1.00 20.99    -0.188 OA
HETATM    6  C2    D T 502     -40.580  47.742 -12.853  1.00 21.88     0.060 A 
HETATM    7  C3    D T 502     -40.916  49.026 -13.208  1.00 22.84     0.014 A 
HETATM    8 CL14   D T 502     -39.197  47.482 -11.820  1.00 24.13    -0.082 Cl
HETATM    9  C4    D T 502     -41.995  49.235 -14.046  1.00 24.38     0.028 A 
ENDBRANCH   1   2
BRANCH   1  10
HETATM   10  C8    D T 502     -43.640  49.205 -16.466  1.00 25.40     0.111 A 
HETATM   11  C9    D T 502     -44.426  50.350 -16.551  1.00 25.57     0.081 A 
HETATM   12  C10   D T 502     -44.356  51.187 -17.641  1.00 22.48     0.025 A 
HETATM   13 CL16   D T 502     -45.614  50.672 -15.332  1.00 35.41    -0.080 Cl
HETATM   14  C11   D T 502     -43.507  50.858 -18.668  1.00 29.03     0.059 A 
HETATM   15  C12   D T 502     -42.686  49.752 -18.605  1.00 24.01     0.013 A 
HETATM   16 CL15   D T 502     -43.566  51.798 -20.132  1.00 33.00    -0.082 Cl
HETATM   17  C13   D T 502     -42.748  48.921 -17.496  1.00 27.52     0.026 A 
ENDBRANCH   1  10
TORSDOF 2
ENDMDL
MODEL 4
REMARK VINA RESULT:      -7.7      1.511      1.872
REMARK  2 active torsions:
REMARK  status: ('A' for Active; 'I' for Inactive)
REMARK    1  A    between atoms: C5_4  and  O7_13 
REMARK    2  A    between atoms: C8_10  and  O7_13 
ROOT
HETATM    1  O7    D T 502     -44.581  48.733 -14.053  1.00 23.89    -0.304 OA
ENDROOT
BRANCH   1   2
HETATM    2  C5    D T 502     -45.287  47.894 -14.905  1.00 20.81     0.125 A 
HETATM    3  C6    D T 502     -45.616  48.336 -16.192  1.00 21.92     0.154 A 
HETATM    4  C1    D T 502     -46.289  47.485 -17.055  1.00 19.69     0.041 A 
HETATM    5  O17   D T 502     -45.294  49.596 -16.595  1.00 20.99    -0.188 OA
HETATM    6  C2    D T 502     -46.637  46.223 -16.622  1.00 21.88     0.060 A 
HETATM    7  C3    D T 502     -46.333  45.784 -15.356  1.00 22.84     0.014 A 
HETATM    8 CL14   D T 502     -47.473  45.150 -17.715  1.00 24.13    -0.082 Cl
HETATM    9  C4    D T 502     -45.650  46.622 -14.495  1.00 24.38     0.028 A 
ENDBRANCH   1   2
BRANCH   1  10
HETATM   10  C8    D T 502     -43.304  48.356 -13.643  1.00 25.40     0.111 A 
HETATM   11  C9    D T 502     -43.114  47.972 -12.319  1.00 25.57     0.081 A 
HETATM   12  C10   D T 502     -41.865  47.653 -11.838  1.00 22.48     0.025 A 
HETATM   13 CL16   D T 502     -44.443  48.019 -11.209  1.00 35.41    -0.080 Cl
HETATM   14  C11   D T 502     -40.791  47.745 -12.688  1.00 29.03     0.059 A 
HETATM   15  C12   D T 502     -40.943  48.085 -14.016  1.00 24.01     0.013 A 
HETATM   16 CL15   D T 502     -39.191  47.543 -12.034  1.00 33.00    -0.082 Cl
HETATM   17  C13   D T 502     -42.207  48.390 -14.499  1.00 27.52     0.026 A 
ENDBRANCH   1  10
TORSDOF 2
ENDMDL
MODEL 5
REMARK VINA RESULT:      -7.6      2.293      2.704
REMARK  2 active torsions:
REMARK  status: ('A' for Active; 'I' for Inactive)
REMARK    1  A    between atoms: C5_4  and  O7_13 
REMARK    2  A    between atoms: C8_10  and  O7_13 
ROOT
HETATM    1  O7    D T 502     -45.213  46.783 -13.507  1.00 23.89    -0.304 OA
ENDROOT
BRANCH   1   2
HETATM    2  C5    D T 502     -45.635  47.303 -14.725  1.00 20.81     0.125 A 
HETATM    3  C6    D T 502     -46.277  46.467 -15.646  1.00 21.92     0.154 A 
HETATM    4  C1    D T 502     -46.730  46.993 -16.845  1.00 19.69     0.041 A 
HETATM    5  O17   D T 502     -46.445  45.142 -15.380  1.00 20.99    -0.188 OA
HETATM    6  C2    D T 502     -46.524  48.330 -17.115  1.00 21.88     0.060 A 
HETATM    7  C3    D T 502     -45.882  49.157 -16.226  1.00 22.84     0.014 A 
HETATM    8 CL14   D T 502     -47.108  48.993 -18.621  1.00 24.13    -0.082 Cl
HETATM    9  C4    D T 502     -45.439  48.641 -15.022  1.00 24.38     0.028 A 
ENDBRANCH   1   2
BRANCH   1  10
HETATM   10  C8    D T 502     -43.858  46.830 -13.189  1.00 25.40     0.111 A 
HETATM   11  C9    D T 502     -43.459  47.568 -12.079  1.00 25.57     0.081 A 
HETATM   12  C10   D T 502     -42.129  47.707 -11.752  1.00 22.48     0.025 A 
HETATM   13 CL16   D T 502     -44.636  48.443 -11.156  1.00 35.41    -0.080 Cl
HETATM   14  C11   D T 502     -41.189  47.121 -12.562  1.00 29.03     0.059 A 
HETATM   15  C12   D T 502     -41.547  46.352 -13.650  1.00 24.01     0.013 A 
HETATM   16 CL15   D T 502     -39.508  47.465 -12.272  1.00 33.00    -0.082 Cl
HETATM   17  C13   D T 502     -42.889  46.201 -13.965  1.00 27.52     0.026 A 
ENDBRANCH   1  10
TORSDOF 2
ENDMDL
MODEL 6
REMARK VINA RESULT:      -7.6      4.112      6.258
REMARK  2 active torsions:
REMARK  status: ('A' for Active; 'I' for Inactive)
REMARK    1  A    between atoms: C5_4  and  O7_13 
REMARK    2  A    between atoms: C8_10  and  O7_13 
ROOT
HETATM    1  O7    D T 502     -44.196  49.297 -16.100  1.00 23.89    -0.304 OA
ENDROOT
BRANCH   1   2
HETATM    2  C5    D T 502     -43.169  48.963 -15.227  1.00 20.81     0.125 A 
HETATM    3  C6    D T 502     -43.148  49.518 -13.943  1.00 21.92     0.154 A 
HETATM    4  C1    D T 502     -42.143  49.157 -13.058  1.00 19.69     0.041 A 
HETATM    5  O17   D T 502     -44.095  50.419 -13.561  1.00 20.99    -0.188 OA
HETATM    6  C2    D T 502     -41.173  48.267 -13.469  1.00 21.88     0.060 A 
HETATM    7  C3    D T 502     -41.174  47.728 -14.732  1.00 22.84     0.014 A 
HETATM    8 CL14   D T 502     -39.916  47.804 -12.349  1.00 24.13    -0.082 Cl
HETATM    9  C4    D T 502     -42.180  48.074 -15.614  1.00 24.38     0.028 A 
ENDBRANCH   1   2
BRANCH   1  10
HETATM   10  C8    D T 502     -43.925  50.162 -17.159  1.00 25.40     0.111 A 
HETATM   11  C9    D T 502     -44.853  50.265 -18.190  1.00 25.57     0.081 A 
HETATM   12  C10   D T 502     -44.612  51.050 -19.294  1.00 22.48     0.025 A 
HETATM   13 CL16   D T 502     -46.286  49.291 -18.161  1.00 35.41    -0.080 Cl
HETATM   14  C11   D T 502     -43.416  51.719 -19.376  1.00 29.03     0.059 A 
HETATM   15  C12   D T 502     -42.487  51.671 -18.358  1.00 24.01     0.013 A 
HETATM   16 CL15   D T 502     -43.022  52.544 -20.857  1.00 33.00    -0.082 Cl
HETATM   17  C13   D T 502     -42.742  50.891 -17.240  1.00 27.52     0.026 A 
ENDBRANCH   1  10
TORSDOF 2
ENDMDL
MODEL 7
REMARK VINA RESULT:      -7.6      1.568      1.941
REMARK  2 active torsions:
REMARK  status: ('A' for Active; 'I' for Inactive)
REMARK    1  A    between atoms: C5_4  and  O7_13 
REMARK    2  A    between atoms: C8_10  and  O7_13 
ROOT
HETATM    1  O7    D T 502     -44.761  49.620 -14.484  1.00 23.89    -0.304 OA
ENDROOT
BRANCH   1   2
HETATM    2  C5    D T 502     -45.753  48.677 -14.718  1.00 20.81     0.125 A 
HETATM    3  C6    D T 502     -46.980  48.787 -14.055  1.00 21.92     0.154 A 
HETATM    4  C1    D T 502     -47.983  47.866 -14.315  1.00 19.69     0.041 A 
HETATM    5  O17   D T 502     -47.191  49.780 -13.147  1.00 20.99    -0.188 OA
HETATM    6  C2    D T 502     -47.745  46.847 -15.213  1.00 21.88     0.060 A 
HETATM    7  C3    D T 502     -46.539  46.719 -15.858  1.00 22.84     0.014 A 
HETATM    8 CL14   D T 502     -49.014  45.697 -15.549  1.00 24.13    -0.082 Cl
HETATM    9  C4    D T 502     -45.540  47.641 -15.613  1.00 24.38     0.028 A 
ENDBRANCH   1   2
BRANCH   1  10
HETATM   10  C8    D T 502     -43.562  49.208 -13.907  1.00 25.40     0.111 A 
HETATM   11  C9    D T 502     -42.410  49.214 -14.687  1.00 25.57     0.081 A 
HETATM   12  C10   D T 502     -41.209  48.756 -14.194  1.00 22.48     0.025 A 
HETATM   13 CL16   D T 502     -42.498  49.682 -16.352  1.00 35.41    -0.080 Cl
HETATM   14  C11   D T 502     -41.171  48.262 -12.913  1.00 29.03     0.059 A 
HETATM   15  C12   D T 502     -42.284  48.273 -12.098  1.00 24.01     0.013 A 
HETATM   16 CL15   D T 502     -39.711  47.494 -12.359  1.00 33.00    -0.082 Cl
HETATM   17  C13   D T 502     -43.487  48.752 -12.595  1.00 27.52     0.026 A 
ENDBRANCH   1  10
TORSDOF 2
ENDMDL
MODEL 8
REMARK VINA RESULT:      -7.5      2.322      6.174
REMARK  2 active torsions:
REMARK  status: ('A' for Active; 'I' for Inactive)
REMARK    1  A    between atoms: C5_4  and  O7_13 
REMARK    2  A    between atoms: C8_10  and  O7_13 
ROOT
HETATM    1  O7    D T 502     -44.552  46.708 -15.667  1.00 23.89    -0.304 OA
ENDROOT
BRANCH   1   2
HETATM    2  C5    D T 502     -43.424  46.898 -14.879  1.00 20.81     0.125 A 
HETATM    3  C6    D T 502     -42.394  47.727 -15.338  1.00 21.92     0.154 A 
HETATM    4  C1    D T 502     -41.284  47.946 -14.536  1.00 19.69     0.041 A 
HETATM    5  O17   D T 502     -42.465  48.305 -16.569  1.00 20.99    -0.188 OA
HETATM    6  C2    D T 502     -41.211  47.328 -13.304  1.00 21.88     0.060 A 
HETATM    7  C3    D T 502     -42.209  46.501 -12.850  1.00 22.84     0.014 A 
HETATM    8 CL14   D T 502     -39.819  47.616 -12.291  1.00 24.13    -0.082 Cl
HETATM    9  C4    D T 502     -43.323  46.289 -13.639  1.00 24.38     0.028 A 
ENDBRANCH   1   2
BRANCH   1  10
HETATM   10  C8    D T 502     -45.710  47.421 -15.367  1.00 25.40     0.111 A 
HETATM   11  C9    D T 502     -46.900  46.719 -15.197  1.00 25.57     0.081 A 
HETATM   12  C10   D T 502     -48.089  47.371 -14.965  1.00 22.48     0.025 A 
HETATM   13 CL16   D T 502     -46.924  45.000 -15.408  1.00 35.41    -0.080 Cl
HETATM   14  C11   D T 502     -48.090  48.743 -14.929  1.00 29.03     0.059 A 
HETATM   15  C12   D T 502     -46.926  49.473 -15.057  1.00 24.01     0.013 A 
HETATM   16 CL15   D T 502     -49.616  49.575 -14.843  1.00 33.00    -0.082 Cl
HETATM   17  C13   D T 502     -45.727  48.809 -15.273  1.00 27.52     0.026 A 
ENDBRANCH   1  10
TORSDOF 2
ENDMDL
MODEL 9
REMARK VINA RESULT:      -7.5      9.227     11.538
REMARK  2 active torsions:
REMARK  status: ('A' for Active; 'I' for Inactive)
REMARK    1  A    between atoms: C5_4  and  O7_13 
REMARK    2  A    between atoms: C8_10  and  O7_13 
ROOT
HETATM    1  O7    D T 502     -51.079  47.717 -23.316  1.00 23.89    -0.304 OA
ENDROOT
BRANCH   1   2
HETATM    2  C5    D T 502     -51.338  49.065 -23.532  1.00 20.81     0.125 A 
HETATM    3  C6    D T 502     -52.591  49.589 -23.197  1.00 21.92     0.154 A 
HETATM    4  C1    D T 502     -52.838  50.941 -23.378  1.00 19.69     0.041 A 
HETATM    5  O17   D T 502     -53.573  48.780 -22.710  1.00 20.99    -0.188 OA
HETATM    6  C2    D T 502     -51.845  51.742 -23.902  1.00 21.88     0.060 A 
HETATM    7  C3    D T 502     -50.616  51.236 -24.250  1.00 22.84     0.014 A 
HETATM    8 CL14   D T 502     -52.153  53.446 -24.118  1.00 24.13    -0.082 Cl
HETATM    9  C4    D T 502     -50.359  49.891 -24.059  1.00 24.38     0.028 A 
ENDBRANCH   1   2
BRANCH   1  10
HETATM   10  C8    D T 502     -50.230  47.354 -22.273  1.00 25.40     0.111 A 
HETATM   11  C9    D T 502     -48.983  46.821 -22.583  1.00 25.57     0.081 A 
HETATM   12  C10   D T 502     -48.127  46.382 -21.599  1.00 22.48     0.025 A 
HETATM   13 CL16   D T 502     -48.537  46.578 -24.239  1.00 35.41    -0.080 Cl
HETATM   14  C11   D T 502     -48.538  46.454 -20.291  1.00 29.03     0.059 A 
HETATM   15  C12   D T 502     -49.751  47.009 -19.941  1.00 24.01     0.013 A 
HETATM   16 CL15   D T 502     -47.550  45.713 -19.065  1.00 33.00    -0.082 Cl
HETATM   17  C13   D T 502     -50.603  47.466 -20.937  1.00 27.52     0.026 A 
ENDBRANCH   1  10
TORSDOF 2
ENDMDL
