MODEL 1
REMARK VINA RESULT:    -8.193      0.000      0.000
REMARK INTER + INTRA:          -9.289
REMARK INTER:                  -9.151
REMARK INTRA:                  -0.138
REMARK UNBOUND:                -0.138
REMARK  2 active torsions:
REMARK  status: ('A' for Active; 'I' for Inactive)
REMARK    1  A    between atoms: C5_4  and  O7_13 
REMARK    2  A    between atoms: C8_10  and  O7_13 
ROOT
HETATM    1  O7    D T 502     -44.423  49.599 -13.423  1.00 23.89    -0.304 OA
ENDROOT
BRANCH   1   2
HETATM    2  C5    D T 502     -45.467  48.785 -13.845  1.00 20.81     0.125 A 
HETATM    3  C6    D T 502     -46.770  49.055 -13.413  1.00 21.92     0.154 A 
HETATM    4  C1    D T 502     -47.817  48.265 -13.863  1.00 19.69     0.041 A 
HETATM    5  O17   D T 502     -47.016  50.076 -12.546  1.00 20.99    -0.188 OA
HETATM    6  C2    D T 502     -47.549  47.215 -14.716  1.00 21.88     0.060 A 
HETATM    7  C3    D T 502     -46.272  46.930 -15.134  1.00 22.84     0.014 A 
HETATM    8 CL14   D T 502     -48.870  46.230 -15.291  1.00 24.13    -0.082 Cl
HETATM    9  C4    D T 502     -45.226  47.723 -14.700  1.00 24.38     0.028 A 
ENDBRANCH   1   2
BRANCH   1  10
HETATM   10  C8    D T 502     -43.177  49.026 -13.181  1.00 25.40     0.111 A 
HETATM   11  C9    D T 502     -43.044  48.150 -12.108  1.00 25.57     0.081 A 
HETATM   12  C10   D T 502     -41.825  47.603 -11.777  1.00 22.48     0.025 A 
HETATM   13 CL16   D T 502     -44.401  47.834 -11.079  1.00 35.41    -0.080 Cl
HETATM   14  C11   D T 502     -40.724  47.959 -12.515  1.00 29.03     0.059 A 
HETATM   15  C12   D T 502     -40.822  48.795 -13.608  1.00 24.01     0.013 A 
HETATM   16 CL15   D T 502     -39.154  47.436 -11.976  1.00 33.00    -0.082 Cl
HETATM   17  C13   D T 502     -42.056  49.330 -13.947  1.00 27.52     0.026 A 
ENDBRANCH   1  10
TORSDOF 2
ENDMDL
MODEL 2
REMARK VINA RESULT:    -7.894      1.229      5.710
REMARK INTER + INTRA:          -8.954
REMARK INTER:                  -8.678
REMARK INTRA:                  -0.276
REMARK UNBOUND:                -0.138
REMARK  2 active torsions:
REMARK  status: ('A' for Active; 'I' for Inactive)
REMARK    1  A    between atoms: C5_4  and  O7_13 
REMARK    2  A    between atoms: C8_10  and  O7_13 
ROOT
HETATM    1  O7    D T 502     -44.271  49.510 -13.750  1.00 23.89    -0.304 OA
ENDROOT
BRANCH   1   2
HETATM    2  C5    D T 502     -43.037  49.026 -13.333  1.00 20.81     0.125 A 
HETATM    3  C6    D T 502     -42.957  48.252 -12.170  1.00 21.92     0.154 A 
HETATM    4  C1    D T 502     -41.732  47.739 -11.774  1.00 19.69     0.041 A 
HETATM    5  O17   D T 502     -44.067  48.011 -11.420  1.00 20.99    -0.188 OA
HETATM    6  C2    D T 502     -40.610  48.016 -12.527  1.00 21.88     0.060 A 
HETATM    7  C3    D T 502     -40.673  48.788 -13.661  1.00 22.84     0.014 A 
HETATM    8 CL14   D T 502     -39.071  47.358 -12.033  1.00 24.13    -0.082 Cl
HETATM    9  C4    D T 502     -41.894  49.292 -14.069  1.00 24.38     0.028 A 
ENDBRANCH   1   2
BRANCH   1  10
HETATM   10  C8    D T 502     -45.196  48.618 -14.287  1.00 25.40     0.111 A 
HETATM   11  C9    D T 502     -46.504  48.648 -13.813  1.00 25.57     0.081 A 
HETATM   12  C10   D T 502     -47.447  47.749 -14.257  1.00 22.48     0.025 A 
HETATM   13 CL16   D T 502     -46.937  49.746 -12.546  1.00 35.41    -0.080 Cl
HETATM   14  C11   D T 502     -47.067  46.793 -15.165  1.00 29.03     0.059 A 
HETATM   15  C12   D T 502     -45.790  46.754 -15.686  1.00 24.01     0.013 A 
HETATM   16 CL15   D T 502     -48.195  45.532 -15.571  1.00 33.00    -0.082 Cl
HETATM   17  C13   D T 502     -44.848  47.673 -15.248  1.00 27.52     0.026 A 
ENDBRANCH   1  10
TORSDOF 2
ENDMDL
MODEL 3
REMARK VINA RESULT:    -7.573      2.382      6.187
REMARK INTER + INTRA:          -8.597
REMARK INTER:                  -8.138
REMARK INTRA:                  -0.459
REMARK UNBOUND:                -0.138
REMARK  2 active torsions:
REMARK  status: ('A' for Active; 'I' for Inactive)
REMARK    1  A    between atoms: C5_4  and  O7_13 
REMARK    2  A    between atoms: C8_10  and  O7_13 
ROOT
HETATM    1  O7    D T 502     -44.573  46.833 -15.743  1.00 23.89    -0.304 OA
ENDROOT
BRANCH   1   2
HETATM    2  C5    D T 502     -43.443  46.960 -14.945  1.00 20.81     0.125 A 
HETATM    3  C6    D T 502     -42.387  47.775 -15.369  1.00 21.92     0.154 A 
HETATM    4  C1    D T 502     -41.275  47.931 -14.556  1.00 19.69     0.041 A 
HETATM    5  O17   D T 502     -42.437  48.402 -16.577  1.00 20.99    -0.188 OA
HETATM    6  C2    D T 502     -41.225  47.265 -13.349  1.00 21.88     0.060 A 
HETATM    7  C3    D T 502     -42.248  46.450 -12.929  1.00 22.84     0.014 A 
HETATM    8 CL14   D T 502     -39.830  47.473 -12.321  1.00 24.13    -0.082 Cl
HETATM    9  C4    D T 502     -43.365  46.301 -13.729  1.00 24.38     0.028 A 
ENDBRANCH   1   2
BRANCH   1  10
HETATM   10  C8    D T 502     -45.710  47.571 -15.422  1.00 25.40     0.111 A 
HETATM   11  C9    D T 502     -46.910  46.895 -15.225  1.00 25.57     0.081 A 
HETATM   12  C10   D T 502     -48.081  47.573 -14.971  1.00 22.48     0.025 A 
HETATM   13 CL16   D T 502     -46.974  45.176 -15.429  1.00 35.41    -0.080 Cl
HETATM   14  C11   D T 502     -48.051  48.945 -14.941  1.00 29.03     0.059 A 
HETATM   15  C12   D T 502     -46.876  49.649 -15.095  1.00 24.01     0.013 A 
HETATM   16 CL15   D T 502     -49.558  49.808 -14.827  1.00 33.00    -0.082 Cl
HETATM   17  C13   D T 502     -45.696  48.960 -15.334  1.00 27.52     0.026 A 
ENDBRANCH   1  10
TORSDOF 2
ENDMDL
MODEL 4
REMARK VINA RESULT:    -7.432      1.846      2.305
REMARK INTER + INTRA:          -8.438
REMARK INTER:                  -8.150
REMARK INTRA:                  -0.289
REMARK UNBOUND:                -0.138
REMARK  2 active torsions:
REMARK  status: ('A' for Active; 'I' for Inactive)
REMARK    1  A    between atoms: C5_4  and  O7_13 
REMARK    2  A    between atoms: C8_10  and  O7_13 
ROOT
HETATM    1  O7    D T 502     -45.162  48.965 -13.671  1.00 23.89    -0.304 OA
ENDROOT
BRANCH   1   2
HETATM    2  C5    D T 502     -45.764  48.042 -14.517  1.00 20.81     0.125 A 
HETATM    3  C6    D T 502     -46.551  48.494 -15.582  1.00 21.92     0.154 A 
HETATM    4  C1    D T 502     -47.122  47.575 -16.448  1.00 19.69     0.041 A 
HETATM    5  O17   D T 502     -46.772  49.826 -15.765  1.00 20.99    -0.188 OA
HETATM    6  C2    D T 502     -46.916  46.228 -16.233  1.00 21.88     0.060 A 
HETATM    7  C3    D T 502     -46.159  45.772 -15.181  1.00 22.84     0.014 A 
HETATM    8 CL14   D T 502     -47.626  45.073 -17.332  1.00 24.13    -0.082 Cl
HETATM    9  C4    D T 502     -45.575  46.684 -14.322  1.00 24.38     0.028 A 
ENDBRANCH   1   2
BRANCH   1  10
HETATM   10  C8    D T 502     -43.865  48.722 -13.224  1.00 25.40     0.111 A 
HETATM   11  C9    D T 502     -42.799  49.147 -14.011  1.00 25.57     0.081 A 
HETATM   12  C10   D T 502     -41.496  48.879 -13.657  1.00 22.48     0.025 A 
HETATM   13 CL16   D T 502     -43.103  49.916 -15.533  1.00 35.41    -0.080 Cl
HETATM   14  C11   D T 502     -41.263  48.153 -12.515  1.00 29.03     0.059 A 
HETATM   15  C12   D T 502     -42.291  47.746 -11.691  1.00 24.01     0.013 A 
HETATM   16 CL15   D T 502     -39.636  47.635 -12.174  1.00 33.00    -0.082 Cl
HETATM   17  C13   D T 502     -43.601  48.034 -12.044  1.00 27.52     0.026 A 
ENDBRANCH   1  10
TORSDOF 2
ENDMDL
MODEL 5
REMARK VINA RESULT:    -7.408      1.877      6.081
REMARK INTER + INTRA:          -8.412
REMARK INTER:                  -8.000
REMARK INTRA:                  -0.411
REMARK UNBOUND:                -0.138
REMARK  2 active torsions:
REMARK  status: ('A' for Active; 'I' for Inactive)
REMARK    1  A    between atoms: C5_4  and  O7_13 
REMARK    2  A    between atoms: C8_10  and  O7_13 
ROOT
HETATM    1  O7    D T 502     -46.467  48.843 -13.584  1.00 23.89    -0.304 OA
ENDROOT
BRANCH   1   2
HETATM    2  C5    D T 502     -45.084  48.948 -13.526  1.00 20.81     0.125 A 
HETATM    3  C6    D T 502     -44.405  48.493 -12.389  1.00 21.92     0.154 A 
HETATM    4  C1    D T 502     -43.021  48.565 -12.346  1.00 19.69     0.041 A 
HETATM    5  O17   D T 502     -45.091  47.996 -11.324  1.00 20.99    -0.188 OA
HETATM    6  C2    D T 502     -42.340  49.099 -13.420  1.00 21.88     0.060 A 
HETATM    7  C3    D T 502     -42.997  49.564 -14.534  1.00 22.84     0.014 A 
HETATM    8 CL14   D T 502     -40.597  49.176 -13.368  1.00 24.13    -0.082 Cl
HETATM    9  C4    D T 502     -44.375  49.483 -14.589  1.00 24.38     0.028 A 
ENDBRANCH   1   2
BRANCH   1  10
HETATM   10  C8    D T 502     -47.036  47.922 -14.461  1.00 25.40     0.111 A 
HETATM   11  C9    D T 502     -48.203  48.273 -15.132  1.00 25.57     0.081 A 
HETATM   12  C10   D T 502     -48.849  47.383 -15.960  1.00 22.48     0.025 A 
HETATM   13 CL16   D T 502     -48.943  49.810 -14.828  1.00 35.41    -0.080 Cl
HETATM   14  C11   D T 502     -48.331  46.120 -16.096  1.00 29.03     0.059 A 
HETATM   15  C12   D T 502     -47.156  45.746 -15.477  1.00 24.01     0.013 A 
HETATM   16 CL15   D T 502     -49.251  44.932 -16.975  1.00 33.00    -0.082 Cl
HETATM   17  C13   D T 502     -46.501  46.652 -14.657  1.00 27.52     0.026 A 
ENDBRANCH   1  10
TORSDOF 2
ENDMDL
MODEL 6
REMARK VINA RESULT:    -7.370      2.658      6.287
REMARK INTER + INTRA:          -8.369
REMARK INTER:                  -7.933
REMARK INTRA:                  -0.436
REMARK UNBOUND:                -0.138
REMARK  2 active torsions:
REMARK  status: ('A' for Active; 'I' for Inactive)
REMARK    1  A    between atoms: C5_4  and  O7_13 
REMARK    2  A    between atoms: C8_10  and  O7_13 
ROOT
HETATM    1  O7    D T 502     -44.214  47.146 -16.007  1.00 23.89    -0.304 OA
ENDROOT
BRANCH   1   2
HETATM    2  C5    D T 502     -43.180  47.287 -15.091  1.00 20.81     0.125 A 
HETATM    3  C6    D T 502     -42.931  46.263 -14.170  1.00 21.92     0.154 A 
HETATM    4  C1    D T 502     -41.875  46.387 -13.280  1.00 19.69     0.041 A 
HETATM    5  O17   D T 502     -43.724  45.157 -14.131  1.00 20.99    -0.188 OA
HETATM    6  C2    D T 502     -41.100  47.527 -13.309  1.00 21.88     0.060 A 
HETATM    7  C3    D T 502     -41.344  48.545 -14.198  1.00 22.84     0.014 A 
HETATM    8 CL14   D T 502     -39.764  47.674 -12.196  1.00 24.13    -0.082 Cl
HETATM    9  C4    D T 502     -42.387  48.422 -15.097  1.00 24.38     0.028 A 
ENDBRANCH   1   2
BRANCH   1  10
HETATM   10  C8    D T 502     -45.439  47.752 -15.737  1.00 25.40     0.111 A 
HETATM   11  C9    D T 502     -45.784  48.903 -16.439  1.00 25.57     0.081 A 
HETATM   12  C10   D T 502     -46.949  49.584 -16.170  1.00 22.48     0.025 A 
HETATM   13 CL16   D T 502     -44.675  49.578 -17.585  1.00 35.41    -0.080 Cl
HETATM   14  C11   D T 502     -47.765  49.119 -15.168  1.00 29.03     0.059 A 
HETATM   15  C12   D T 502     -47.476  47.962 -14.475  1.00 24.01     0.013 A 
HETATM   16 CL15   D T 502     -49.128  50.087 -14.687  1.00 33.00    -0.082 Cl
HETATM   17  C13   D T 502     -46.308  47.271 -14.762  1.00 27.52     0.026 A 
ENDBRANCH   1  10
TORSDOF 2
ENDMDL
MODEL 7
REMARK VINA RESULT:    -7.337      2.168      6.305
REMARK INTER + INTRA:          -8.333
REMARK INTER:                  -8.034
REMARK INTRA:                  -0.299
REMARK UNBOUND:                -0.138
REMARK  2 active torsions:
REMARK  status: ('A' for Active; 'I' for Inactive)
REMARK    1  A    between atoms: C5_4  and  O7_13 
REMARK    2  A    between atoms: C8_10  and  O7_13 
ROOT
HETATM    1  O7    D T 502     -44.585  48.633 -14.696  1.00 23.89    -0.304 OA
ENDROOT
BRANCH   1   2
HETATM    2  C5    D T 502     -43.364  48.334 -14.105  1.00 20.81     0.125 A 
HETATM    3  C6    D T 502     -42.233  48.156 -14.910  1.00 21.92     0.154 A 
HETATM    4  C1    D T 502     -41.007  47.894 -14.318  1.00 19.69     0.041 A 
HETATM    5  O17   D T 502     -42.330  48.225 -16.267  1.00 20.99    -0.188 OA
HETATM    6  C2    D T 502     -40.929  47.796 -12.945  1.00 21.88     0.060 A 
HETATM    7  C3    D T 502     -42.035  47.952 -12.145  1.00 22.84     0.014 A 
HETATM    8 CL14   D T 502     -39.383  47.478 -12.202  1.00 24.13    -0.082 Cl
HETATM    9  C4    D T 502     -43.258  48.228 -12.728  1.00 24.38     0.028 A 
ENDBRANCH   1   2
BRANCH   1  10
HETATM   10  C8    D T 502     -45.318  47.605 -15.284  1.00 25.40     0.111 A 
HETATM   11  C9    D T 502     -45.817  47.793 -16.569  1.00 25.57     0.081 A 
HETATM   12  C10   D T 502     -46.604  46.841 -17.178  1.00 22.48     0.025 A 
HETATM   13 CL16   D T 502     -45.563  49.302 -17.381  1.00 35.41    -0.080 Cl
HETATM   14  C11   D T 502     -46.914  45.701 -16.480  1.00 29.03     0.059 A 
HETATM   15  C12   D T 502     -46.408  45.462 -15.219  1.00 24.01     0.013 A 
HETATM   16 CL15   D T 502     -48.071  44.595 -17.161  1.00 33.00    -0.082 Cl
HETATM   17  C13   D T 502     -45.602  46.417 -14.617  1.00 27.52     0.026 A 
ENDBRANCH   1  10
TORSDOF 2
ENDMDL
MODEL 8
REMARK VINA RESULT:    -7.317      3.173      3.594
REMARK INTER + INTRA:          -8.311
REMARK INTER:                  -8.087
REMARK INTRA:                  -0.223
REMARK UNBOUND:                -0.138
REMARK  2 active torsions:
REMARK  status: ('A' for Active; 'I' for Inactive)
REMARK    1  A    between atoms: C5_4  and  O7_13 
REMARK    2  A    between atoms: C8_10  and  O7_13 
ROOT
HETATM    1  O7    D T 502     -44.112  48.837 -14.488  1.00 23.89    -0.304 OA
ENDROOT
BRANCH   1   2
HETATM    2  C5    D T 502     -44.241  49.328 -15.780  1.00 20.81     0.125 A 
HETATM    3  C6    D T 502     -45.409  49.063 -16.505  1.00 21.92     0.154 A 
HETATM    4  C1    D T 502     -45.553  49.583 -17.782  1.00 19.69     0.041 A 
HETATM    5  O17   D T 502     -46.394  48.288 -15.974  1.00 20.99    -0.188 OA
HETATM    6  C2    D T 502     -44.534  50.340 -18.321  1.00 21.88     0.060 A 
HETATM    7  C3    D T 502     -43.377  50.594 -17.625  1.00 22.84     0.014 A 
HETATM    8 CL14   D T 502     -44.723  51.005 -19.923  1.00 24.13    -0.082 Cl
HETATM    9  C4    D T 502     -43.232  50.089 -16.346  1.00 24.38     0.028 A 
ENDBRANCH   1   2
BRANCH   1  10
HETATM   10  C8    D T 502     -42.849  48.470 -14.030  1.00 25.40     0.111 A 
HETATM   11  C9    D T 502     -42.476  47.131 -14.102  1.00 25.57     0.081 A 
HETATM   12  C10   D T 502     -41.268  46.697 -13.605  1.00 22.48     0.025 A 
HETATM   13 CL16   D T 502     -43.596  45.956 -14.706  1.00 35.41    -0.080 Cl
HETATM   14  C11   D T 502     -40.437  47.611 -13.007  1.00 29.03     0.059 A 
HETATM   15  C12   D T 502     -40.755  48.952 -12.949  1.00 24.01     0.013 A 
HETATM   16 CL15   D T 502     -39.009  47.034 -12.197  1.00 33.00    -0.082 Cl
HETATM   17  C13   D T 502     -41.966  49.387 -13.466  1.00 27.52     0.026 A 
ENDBRANCH   1  10
TORSDOF 2
ENDMDL
MODEL 9
REMARK VINA RESULT:    -7.308      2.225      2.801
REMARK INTER + INTRA:          -8.301
REMARK INTER:                  -7.777
REMARK INTRA:                  -0.524
REMARK UNBOUND:                -0.138
REMARK  2 active torsions:
REMARK  status: ('A' for Active; 'I' for Inactive)
REMARK    1  A    between atoms: C5_4  and  O7_13 
REMARK    2  A    between atoms: C8_10  and  O7_13 
ROOT
HETATM    1  O7    D T 502     -46.004  48.622 -14.852  1.00 23.89    -0.304 OA
ENDROOT
BRANCH   1   2
HETATM    2  C5    D T 502     -46.466  47.569 -15.632  1.00 20.81     0.125 A 
HETATM    3  C6    D T 502     -46.792  47.797 -16.974  1.00 21.92     0.154 A 
HETATM    4  C1    D T 502     -47.219  46.739 -17.762  1.00 19.69     0.041 A 
HETATM    5  O17   D T 502     -46.709  49.048 -17.506  1.00 20.99    -0.188 OA
HETATM    6  C2    D T 502     -47.330  45.483 -17.203  1.00 21.88     0.060 A 
HETATM    7  C3    D T 502     -47.028  45.251 -15.883  1.00 22.84     0.014 A 
HETATM    8 CL14   D T 502     -47.855  44.151 -18.200  1.00 24.13    -0.082 Cl
HETATM    9  C4    D T 502     -46.589  46.299 -15.095  1.00 24.38     0.028 A 
ENDBRANCH   1   2
BRANCH   1  10
HETATM   10  C8    D T 502     -44.653  48.667 -14.516  1.00 25.40     0.111 A 
HETATM   11  C9    D T 502     -44.300  48.625 -13.170  1.00 25.57     0.081 A 
HETATM   12  C10   D T 502     -42.987  48.733 -12.771  1.00 22.48     0.025 A 
HETATM   13 CL16   D T 502     -45.533  48.569 -11.956  1.00 35.41    -0.080 Cl
HETATM   14  C11   D T 502     -42.022  48.911 -13.731  1.00 29.03     0.059 A 
HETATM   15  C12   D T 502     -42.328  48.920 -15.076  1.00 24.01     0.013 A 
HETATM   16 CL15   D T 502     -40.393  49.253 -13.222  1.00 33.00    -0.082 Cl
HETATM   17  C13   D T 502     -43.651  48.794 -15.473  1.00 27.52     0.026 A 
ENDBRANCH   1  10
TORSDOF 2
ENDMDL
