MODEL 1
REMARK VINA RESULT:      -8.6      0.000      0.000
REMARK  16 active torsions:
REMARK  status: ('A' for Active; 'I' for Inactive)
REMARK    1  A    between atoms: CA_2  and  CB_3 
REMARK    2  A    between atoms: CA_2  and  C_13 
REMARK    3  A    between atoms: CB_3  and  CG_4 
REMARK    4  A    between atoms: CZ_9  and  OM_11 
REMARK       I    between atoms: C_13  and  N3'_34 
REMARK    5  A    between atoms: C5'_15  and  C4'_16 
REMARK    6  A    between atoms: C1'_18  and  N9_19 
REMARK    7  A    between atoms: C6_24  and  N6_25 
REMARK    8  A    between atoms: C3'_33  and  N3'_34 
REMARK    9  A    between atoms: CA_36  and  CB_37 
REMARK   10  A    between atoms: CA_36  and  C_47 
REMARK   11  A    between atoms: CB_37  and  CG_38 
REMARK   12  A    between atoms: CZ_43  and  OM_45 
REMARK       I    between atoms: C_47  and  N3'_68 
REMARK   13  A    between atoms: C5'_49  and  C4'_50 
REMARK   14  A    between atoms: C1'_52  and  N9_53 
REMARK   15  A    between atoms: C6_58  and  N6_59 
REMARK   16  A    between atoms: C3'_67  and  N3'_68 
ROOT
HETATM    1  C4'   D T 902      51.437 -12.731  34.543  1.00 49.67     0.175 C 
HETATM    2  O4'   D T 902      51.056 -11.425  35.104  1.00 48.76    -0.332 OA
HETATM    3  C1'   D T 902      51.355 -11.384  36.517  1.00 45.63     0.241 C 
HETATM    4  C2'   D T 902      52.225 -12.610  36.767  1.00 45.68     0.226 C 
HETATM    5  O2'   D T 902      53.610 -12.271  36.547  1.00 42.28    -0.216 OA
HETATM    6  C3'   D T 902      51.543 -13.625  35.807  1.00 49.36     0.171 C 
ENDROOT
BRANCH   6   7
HETATM    7  N3'   D T 902      51.976 -15.051  35.753  1.00 44.90    -0.233 NA
HETATM    8  C     D T 902      53.072 -15.467  35.156  1.00 55.02     0.289 C 
HETATM    9  O     D T 902      53.806 -14.721  34.540  0.36 59.82    -0.268 OA
BRANCH   8  10
HETATM   10  CA    D T 902      53.423 -16.921  35.239  1.00 61.14     0.385 C 
HETATM   11  N     D T 902      54.081 -17.363  34.017  1.00 70.78     0.626 N 
BRANCH  10  12
HETATM   12  CB    D T 902      54.296 -17.164  36.483  1.00 57.12     0.075 C 
BRANCH  12  13
HETATM   13  CG    D T 902      53.607 -18.022  37.511  1.00 52.02    -0.019 A 
HETATM   14  CD1   D T 902      52.675 -17.412  38.358  1.00 55.35    -0.002 A 
HETATM   15  CE1   D T 902      52.007 -18.161  39.315  1.00 51.84     0.024 A 
HETATM   16  CZ    D T 902      52.250 -19.540  39.445  1.00 52.04     0.094 A 
HETATM   17  CE2   D T 902      53.190 -20.172  38.612  1.00 48.31     0.024 A 
HETATM   18  CD2   D T 902      53.858 -19.394  37.638  1.00 49.34    -0.002 A 
BRANCH  16  19
HETATM   19  OM    D T 902      51.518 -20.127  40.443  1.00 51.25    -0.328 OA
HETATM   20  CMZ   D T 902      50.303 -20.770  40.281  1.00 51.69     0.181 C 
ENDBRANCH  16  19
ENDBRANCH  12  13
ENDBRANCH  10  12
ENDBRANCH   8  10
ENDBRANCH   6   7
BRANCH   1  21
HETATM   21  C5'   D T 902      50.511 -13.220  33.398  1.00 45.65     0.214 C 
HETATM   22  O5'   D T 902      51.251 -14.005  32.452  1.00 47.75    -0.218 OA
ENDBRANCH   1  21
BRANCH   3  23
HETATM   23  N9    D T 902      50.075 -11.460  37.300  1.00 46.08    -0.270 N 
HETATM   24  C4    D T 902      49.558 -10.425  37.968  1.00 44.02     0.169 A 
HETATM   25  N3    D T 902      49.930  -9.111  38.130  1.00 44.91    -0.205 NA
HETATM   26  C5    D T 902      48.321 -10.939  38.619  1.00 41.20     0.146 A 
HETATM   27  C2    D T 902      49.203  -8.247  38.883  1.00 45.82     0.201 A 
HETATM   28  N1    D T 902      48.050  -8.613  39.490  1.00 42.80    -0.211 NA
HETATM   29  C6    D T 902      47.583  -9.897  39.423  1.00 38.49     0.142 A 
HETATM   30  N7    D T 902      48.199 -12.283  38.303  1.00 39.39    -0.220 NA
HETATM   31  C8    D T 902      49.265 -12.566  37.517  1.00 44.76     0.182 A 
BRANCH  29  32
HETATM   32  N6    D T 902      46.365 -10.141  40.059  1.00 35.77    -0.233 NA
HETATM   33  C9    D T 902      46.470 -10.968  41.264  1.00 37.08     0.096 C 
HETATM   34  C10   D T 902      45.567  -8.912  40.175  1.00 37.64     0.096 C 
ENDBRANCH  29  32
ENDBRANCH   3  23
TORSDOF 16
ENDMDL
MODEL 2
REMARK VINA RESULT:      -8.5      1.652      2.259
REMARK  16 active torsions:
REMARK  status: ('A' for Active; 'I' for Inactive)
REMARK    1  A    between atoms: CA_2  and  CB_3 
REMARK    2  A    between atoms: CA_2  and  C_13 
REMARK    3  A    between atoms: CB_3  and  CG_4 
REMARK    4  A    between atoms: CZ_9  and  OM_11 
REMARK       I    between atoms: C_13  and  N3'_34 
REMARK    5  A    between atoms: C5'_15  and  C4'_16 
REMARK    6  A    between atoms: C1'_18  and  N9_19 
REMARK    7  A    between atoms: C6_24  and  N6_25 
REMARK    8  A    between atoms: C3'_33  and  N3'_34 
REMARK    9  A    between atoms: CA_36  and  CB_37 
REMARK   10  A    between atoms: CA_36  and  C_47 
REMARK   11  A    between atoms: CB_37  and  CG_38 
REMARK   12  A    between atoms: CZ_43  and  OM_45 
REMARK       I    between atoms: C_47  and  N3'_68 
REMARK   13  A    between atoms: C5'_49  and  C4'_50 
REMARK   14  A    between atoms: C1'_52  and  N9_53 
REMARK   15  A    between atoms: C6_58  and  N6_59 
REMARK   16  A    between atoms: C3'_67  and  N3'_68 
ROOT
HETATM    1  C4'   D T 902      48.907 -13.208  34.216  1.00 49.67     0.175 C 
HETATM    2  O4'   D T 902      48.247 -11.935  34.547  1.00 48.76    -0.332 OA
HETATM    3  C1'   D T 902      49.136 -11.101  35.321  1.00 45.63     0.241 C 
HETATM    4  C2'   D T 902      50.499 -11.773  35.208  1.00 45.68     0.226 C 
HETATM    5  O2'   D T 902      51.185 -11.278  34.040  1.00 42.28    -0.216 OA
HETATM    6  C3'   D T 902      50.067 -13.265  35.245  1.00 49.36     0.171 C 
ENDROOT
BRANCH   6   7
HETATM    7  N3'   D T 902      51.077 -14.364  35.262  1.00 44.90    -0.233 NA
HETATM    8  C     D T 902      51.679 -14.829  34.189  1.00 55.02     0.289 C 
HETATM    9  O     D T 902      51.420 -14.437  33.070  0.36 59.82    -0.268 OA
BRANCH   8  10
HETATM   10  CA    D T 902      52.725 -15.887  34.360  1.00 61.14     0.385 C 
HETATM   11  N     D T 902      53.558 -15.987  33.169  1.00 70.78     0.626 N 
BRANCH  10  12
HETATM   12  CB    D T 902      53.556 -15.583  35.619  1.00 57.12     0.075 C 
BRANCH  12  13
HETATM   13  CG    D T 902      53.482 -16.688  36.639  1.00 52.02    -0.019 A 
HETATM   14  CD1   D T 902      54.221 -17.852  36.402  1.00 55.35    -0.002 A 
HETATM   15  CE1   D T 902      54.193 -18.895  37.315  1.00 51.84     0.024 A 
HETATM   16  CZ    D T 902      53.428 -18.799  38.491  1.00 52.04     0.094 A 
HETATM   17  CE2   D T 902      52.668 -17.643  38.745  1.00 48.31     0.024 A 
HETATM   18  CD2   D T 902      52.713 -16.587  37.806  1.00 49.34    -0.002 A 
BRANCH  16  19
HETATM   19  OM    D T 902      53.500 -19.918  39.278  1.00 51.25    -0.328 OA
HETATM   20  CMZ   D T 902      52.954 -20.050  40.543  1.00 51.69     0.181 C 
ENDBRANCH  16  19
ENDBRANCH  12  13
ENDBRANCH  10  12
ENDBRANCH   8  10
ENDBRANCH   6   7
BRANCH   1  21
HETATM   21  C5'   D T 902      47.942 -14.423  34.159  1.00 45.65     0.214 C 
HETATM   22  O5'   D T 902      47.257 -14.463  32.899  1.00 47.75    -0.218 OA
ENDBRANCH   1  21
BRANCH   3  23
HETATM   23  N9    D T 902      48.667 -11.064  36.749  1.00 46.08    -0.270 N 
HETATM   24  C4    D T 902      48.981 -10.085  37.603  1.00 44.02     0.169 A 
HETATM   25  N3    D T 902      49.704  -8.921  37.495  1.00 44.91    -0.205 NA
HETATM   26  C5    D T 902      48.344 -10.456  38.897  1.00 41.20     0.146 A 
HETATM   27  C2    D T 902      49.871  -8.081  38.548  1.00 45.82     0.201 A 
HETATM   28  N1    D T 902      49.308  -8.318  39.756  1.00 42.80    -0.211 NA
HETATM   29  C6    D T 902      48.582  -9.452  39.997  1.00 38.49     0.142 A 
HETATM   30  N7    D T 902      47.700 -11.671  38.724  1.00 39.39    -0.220 NA
HETATM   31  C8    D T 902      47.916 -12.011  37.430  1.00 44.76     0.182 A 
BRANCH  29  32
HETATM   32  N6    D T 902      48.023  -9.563  41.271  1.00 35.77    -0.233 NA
HETATM   33  C9    D T 902      46.557  -9.547  41.288  1.00 37.08     0.096 C 
HETATM   34  C10   D T 902      48.676 -10.623  42.052  1.00 37.64     0.096 C 
ENDBRANCH  29  32
ENDBRANCH   3  23
TORSDOF 16
ENDMDL
MODEL 3
REMARK VINA RESULT:      -8.5      2.960      4.743
REMARK  16 active torsions:
REMARK  status: ('A' for Active; 'I' for Inactive)
REMARK    1  A    between atoms: CA_2  and  CB_3 
REMARK    2  A    between atoms: CA_2  and  C_13 
REMARK    3  A    between atoms: CB_3  and  CG_4 
REMARK    4  A    between atoms: CZ_9  and  OM_11 
REMARK       I    between atoms: C_13  and  N3'_34 
REMARK    5  A    between atoms: C5'_15  and  C4'_16 
REMARK    6  A    between atoms: C1'_18  and  N9_19 
REMARK    7  A    between atoms: C6_24  and  N6_25 
REMARK    8  A    between atoms: C3'_33  and  N3'_34 
REMARK    9  A    between atoms: CA_36  and  CB_37 
REMARK   10  A    between atoms: CA_36  and  C_47 
REMARK   11  A    between atoms: CB_37  and  CG_38 
REMARK   12  A    between atoms: CZ_43  and  OM_45 
REMARK       I    between atoms: C_47  and  N3'_68 
REMARK   13  A    between atoms: C5'_49  and  C4'_50 
REMARK   14  A    between atoms: C1'_52  and  N9_53 
REMARK   15  A    between atoms: C6_58  and  N6_59 
REMARK   16  A    between atoms: C3'_67  and  N3'_68 
ROOT
HETATM    1  C4'   D T 902      48.444 -12.897  34.591  1.00 49.67     0.175 C 
HETATM    2  O4'   D T 902      47.190 -12.818  35.358  1.00 48.76    -0.332 OA
HETATM    3  C1'   D T 902      46.937 -11.453  35.757  1.00 45.63     0.241 C 
HETATM    4  C2'   D T 902      47.925 -10.620  34.950  1.00 45.68     0.226 C 
HETATM    5  O2'   D T 902      47.337 -10.271  33.680  1.00 42.28    -0.216 OA
HETATM    6  C3'   D T 902      49.155 -11.570  34.968  1.00 49.36     0.171 C 
ENDROOT
BRANCH   6   7
HETATM    7  N3'   D T 902      50.461 -11.158  34.375  1.00 44.90    -0.233 NA
HETATM    8  C     D T 902      51.295 -10.312  34.941  1.00 55.02     0.289 C 
HETATM    9  O     D T 902      51.043  -9.743  35.984  0.36 59.82    -0.268 OA
BRANCH   8  10
HETATM   10  CA    D T 902      52.604 -10.042  34.268  1.00 61.14     0.385 C 
HETATM   11  N     D T 902      52.750  -8.623  33.972  1.00 70.78     0.626 N 
BRANCH  10  12
HETATM   12  CB    D T 902      53.750 -10.565  35.153  1.00 57.12     0.075 C 
BRANCH  12  13
HETATM   13  CG    D T 902      53.613 -12.032  35.465  1.00 52.02    -0.019 A 
HETATM   14  CD1   D T 902      53.225 -12.396  36.758  1.00 55.35    -0.002 A 
HETATM   15  CE1   D T 902      53.075 -13.733  37.092  1.00 51.84     0.024 A 
HETATM   16  CZ    D T 902      53.305 -14.741  36.139  1.00 52.04     0.094 A 
HETATM   17  CE2   D T 902      53.707 -14.399  34.835  1.00 48.31     0.024 A 
HETATM   18  CD2   D T 902      53.849 -13.030  34.511  1.00 49.34    -0.002 A 
BRANCH  16  19
HETATM   19  OM    D T 902      53.126 -16.006  36.633  1.00 51.25    -0.328 OA
HETATM   20  CMZ   D T 902      52.677 -16.319  37.905  1.00 51.69     0.181 C 
ENDBRANCH  16  19
ENDBRANCH  12  13
ENDBRANCH  10  12
ENDBRANCH   8  10
ENDBRANCH   6   7
BRANCH   1  21
HETATM   21  C5'   D T 902      49.233 -14.215  34.806  1.00 45.65     0.214 C 
HETATM   22  O5'   D T 902      49.662 -14.756  33.548  1.00 47.75    -0.218 OA
ENDBRANCH   1  21
BRANCH   3  23
HETATM   23  N9    D T 902      47.187 -11.311  37.232  1.00 46.08    -0.270 N 
HETATM   24  C4    D T 902      46.716 -10.298  37.965  1.00 44.02     0.169 A 
HETATM   25  N3    D T 902      45.926  -9.206  37.689  1.00 44.91    -0.205 NA
HETATM   26  C5    D T 902      47.219 -10.529  39.347  1.00 41.20     0.146 A 
HETATM   27  C2    D T 902      45.587  -8.307  38.647  1.00 45.82     0.201 A 
HETATM   28  N1    D T 902      45.972  -8.446  39.937  1.00 42.80    -0.211 NA
HETATM   29  C6    D T 902      46.777  -9.478  40.336  1.00 38.49     0.142 A 
HETATM   30  N7    D T 902      47.993 -11.679  39.334  1.00 39.39    -0.220 NA
HETATM   31  C8    D T 902      47.958 -12.120  38.054  1.00 44.76     0.182 A 
BRANCH  29  32
HETATM   32  N6    D T 902      47.074  -9.533  41.698  1.00 35.77    -0.233 NA
HETATM   33  C9    D T 902      46.800 -10.830  42.322  1.00 37.08     0.096 C 
HETATM   34  C10   D T 902      48.384  -8.932  41.984  1.00 37.64     0.096 C 
ENDBRANCH  29  32
ENDBRANCH   3  23
TORSDOF 16
ENDMDL
MODEL 4
REMARK VINA RESULT:      -8.3      4.295      5.784
REMARK  16 active torsions:
REMARK  status: ('A' for Active; 'I' for Inactive)
REMARK    1  A    between atoms: CA_2  and  CB_3 
REMARK    2  A    between atoms: CA_2  and  C_13 
REMARK    3  A    between atoms: CB_3  and  CG_4 
REMARK    4  A    between atoms: CZ_9  and  OM_11 
REMARK       I    between atoms: C_13  and  N3'_34 
REMARK    5  A    between atoms: C5'_15  and  C4'_16 
REMARK    6  A    between atoms: C1'_18  and  N9_19 
REMARK    7  A    between atoms: C6_24  and  N6_25 
REMARK    8  A    between atoms: C3'_33  and  N3'_34 
REMARK    9  A    between atoms: CA_36  and  CB_37 
REMARK   10  A    between atoms: CA_36  and  C_47 
REMARK   11  A    between atoms: CB_37  and  CG_38 
REMARK   12  A    between atoms: CZ_43  and  OM_45 
REMARK       I    between atoms: C_47  and  N3'_68 
REMARK   13  A    between atoms: C5'_49  and  C4'_50 
REMARK   14  A    between atoms: C1'_52  and  N9_53 
REMARK   15  A    between atoms: C6_58  and  N6_59 
REMARK   16  A    between atoms: C3'_67  and  N3'_68 
ROOT
HETATM    1  C4'   D T 902      48.872 -13.122  34.213  1.00 49.67     0.175 C 
HETATM    2  O4'   D T 902      47.705 -13.315  35.088  1.00 48.76    -0.332 OA
HETATM    3  C1'   D T 902      47.339 -12.065  35.713  1.00 45.63     0.241 C 
HETATM    4  C2'   D T 902      48.134 -11.005  34.962  1.00 45.68     0.226 C 
HETATM    5  O2'   D T 902      47.381 -10.559  33.816  1.00 42.28    -0.216 OA
HETATM    6  C3'   D T 902      49.461 -11.781  34.728  1.00 49.36     0.171 C 
ENDROOT
BRANCH   6   7
HETATM    7  N3'   D T 902      50.641 -11.123  34.095  1.00 44.90    -0.233 NA
HETATM    8  C     D T 902      51.749 -10.819  34.737  1.00 55.02     0.289 C 
HETATM    9  O     D T 902      51.885 -10.999  35.929  0.36 59.82    -0.268 OA
BRANCH   8  10
HETATM   10  CA    D T 902      52.883 -10.225  33.961  1.00 61.14     0.385 C 
HETATM   11  N     D T 902      52.727  -8.781  33.843  1.00 70.78     0.626 N 
BRANCH  10  12
HETATM   12  CB    D T 902      54.215 -10.606  34.632  1.00 57.12     0.075 C 
BRANCH  12  13
HETATM   13  CG    D T 902      54.937 -11.703  33.896  1.00 52.02    -0.019 A 
HETATM   14  CD1   D T 902      54.345 -12.969  33.857  1.00 55.35    -0.002 A 
HETATM   15  CE1   D T 902      54.965 -14.010  33.184  1.00 51.84     0.024 A 
HETATM   16  CZ    D T 902      56.192 -13.810  32.528  1.00 52.04     0.094 A 
HETATM   17  CE2   D T 902      56.813 -12.548  32.562  1.00 48.31     0.024 A 
HETATM   18  CD2   D T 902      56.163 -11.496  33.249  1.00 49.34    -0.002 A 
BRANCH  16  19
HETATM   19  OM    D T 902      56.675 -14.941  31.923  1.00 51.25    -0.328 OA
HETATM   20  CMZ   D T 902      55.988 -16.134  31.778  1.00 51.69     0.181 C 
ENDBRANCH  16  19
ENDBRANCH  12  13
ENDBRANCH  10  12
ENDBRANCH   8  10
ENDBRANCH   6   7
BRANCH   1  21
HETATM   21  C5'   D T 902      49.826 -14.344  34.154  1.00 45.65     0.214 C 
HETATM   22  O5'   D T 902      50.729 -14.332  35.269  1.00 47.75    -0.218 OA
ENDBRANCH   1  21
BRANCH   3  23
HETATM   23  N9    D T 902      47.723 -12.103  37.166  1.00 46.08    -0.270 N 
HETATM   24  C4    D T 902      47.339 -11.182  38.054  1.00 44.02     0.169 A 
HETATM   25  N3    D T 902      46.547 -10.060  37.983  1.00 44.91    -0.205 NA
HETATM   26  C5    D T 902      47.961 -11.581  39.347  1.00 41.20     0.146 A 
HETATM   27  C2    D T 902      46.312  -9.280  39.069  1.00 45.82     0.201 A 
HETATM   28  N1    D T 902      46.809  -9.575  40.292  1.00 42.80    -0.211 NA
HETATM   29  C6    D T 902      47.628 -10.653  40.490  1.00 38.49     0.142 A 
HETATM   30  N7    D T 902      48.709 -12.726  39.126  1.00 39.39    -0.220 NA
HETATM   31  C8    D T 902      48.551 -13.011  37.811  1.00 44.76     0.182 A 
BRANCH  29  32
HETATM   32  N6    D T 902      48.046 -10.873  41.802  1.00 35.77    -0.233 NA
HETATM   33  C9    D T 902      48.336  -9.650  42.555  1.00 37.08     0.096 C 
HETATM   34  C10   D T 902      47.201 -11.871  42.473  1.00 37.64     0.096 C 
ENDBRANCH  29  32
ENDBRANCH   3  23
TORSDOF 16
ENDMDL
MODEL 5
REMARK VINA RESULT:      -8.3      2.216      3.217
REMARK  16 active torsions:
REMARK  status: ('A' for Active; 'I' for Inactive)
REMARK    1  A    between atoms: CA_2  and  CB_3 
REMARK    2  A    between atoms: CA_2  and  C_13 
REMARK    3  A    between atoms: CB_3  and  CG_4 
REMARK    4  A    between atoms: CZ_9  and  OM_11 
REMARK       I    between atoms: C_13  and  N3'_34 
REMARK    5  A    between atoms: C5'_15  and  C4'_16 
REMARK    6  A    between atoms: C1'_18  and  N9_19 
REMARK    7  A    between atoms: C6_24  and  N6_25 
REMARK    8  A    between atoms: C3'_33  and  N3'_34 
REMARK    9  A    between atoms: CA_36  and  CB_37 
REMARK   10  A    between atoms: CA_36  and  C_47 
REMARK   11  A    between atoms: CB_37  and  CG_38 
REMARK   12  A    between atoms: CZ_43  and  OM_45 
REMARK       I    between atoms: C_47  and  N3'_68 
REMARK   13  A    between atoms: C5'_49  and  C4'_50 
REMARK   14  A    between atoms: C1'_52  and  N9_53 
REMARK   15  A    between atoms: C6_58  and  N6_59 
REMARK   16  A    between atoms: C3'_67  and  N3'_68 
ROOT
HETATM    1  C4'   D T 902      48.140 -11.275  34.424  1.00 49.67     0.175 C 
HETATM    2  O4'   D T 902      47.696 -10.011  35.034  1.00 48.76    -0.332 OA
HETATM    3  C1'   D T 902      48.837  -9.252  35.488  1.00 45.63     0.241 C 
HETATM    4  C2'   D T 902      50.042  -9.947  34.867  1.00 45.68     0.226 C 
HETATM    5  O2'   D T 902      50.298  -9.392  33.560  1.00 42.28    -0.216 OA
HETATM    6  C3'   D T 902      49.583 -11.428  34.974  1.00 49.36     0.171 C 
ENDROOT
BRANCH   6   7
HETATM    7  N3'   D T 902      50.484 -12.549  34.576  1.00 44.90    -0.233 NA
HETATM    8  C     D T 902      50.698 -13.619  35.310  1.00 55.02     0.289 C 
HETATM    9  O     D T 902      50.218 -13.762  36.416  0.36 59.82    -0.268 OA
BRANCH   8  10
HETATM   10  CA    D T 902      51.572 -14.701  34.756  1.00 61.14     0.385 C 
HETATM   11  N     D T 902      51.718 -14.558  33.313  1.00 70.78     0.626 N 
BRANCH  10  12
HETATM   12  CB    D T 902      52.932 -14.676  35.476  1.00 57.12     0.075 C 
BRANCH  12  13
HETATM   13  CG    D T 902      53.146 -15.888  36.344  1.00 52.02    -0.019 A 
HETATM   14  CD1   D T 902      53.922 -16.934  35.834  1.00 55.35    -0.002 A 
HETATM   15  CE1   D T 902      54.155 -18.067  36.597  1.00 51.84     0.024 A 
HETATM   16  CZ    D T 902      53.622 -18.182  37.893  1.00 52.04     0.094 A 
HETATM   17  CE2   D T 902      52.829 -17.148  38.423  1.00 48.31     0.024 A 
HETATM   18  CD2   D T 902      52.606 -15.997  37.632  1.00 49.34    -0.002 A 
BRANCH  16  19
HETATM   19  OM    D T 902      53.936 -19.366  38.506  1.00 51.25    -0.328 OA
HETATM   20  CMZ   D T 902      53.091 -20.455  38.637  1.00 51.69     0.181 C 
ENDBRANCH  16  19
ENDBRANCH  12  13
ENDBRANCH  10  12
ENDBRANCH   8  10
ENDBRANCH   6   7
BRANCH   1  21
HETATM   21  C5'   D T 902      47.162 -12.460  34.647  1.00 45.65     0.214 C 
HETATM   22  O5'   D T 902      47.237 -13.386  33.554  1.00 47.75    -0.218 OA
ENDBRANCH   1  21
BRANCH   3  23
HETATM   23  N9    D T 902      48.900  -9.297  36.990  1.00 46.08    -0.270 N 
HETATM   24  C4    D T 902      47.853  -9.036  37.779  1.00 44.02     0.169 A 
HETATM   25  N3    D T 902      46.537  -8.715  37.543  1.00 44.91    -0.205 NA
HETATM   26  C5    D T 902      48.357  -9.161  39.174  1.00 41.20     0.146 A 
HETATM   27  C2    D T 902      45.661  -8.497  38.557  1.00 45.82     0.201 A 
HETATM   28  N1    D T 902      46.016  -8.615  39.857  1.00 42.80    -0.211 NA
HETATM   29  C6    D T 902      47.302  -8.908  40.223  1.00 38.49     0.142 A 
HETATM   30  N7    D T 902      49.706  -9.473  39.116  1.00 39.39    -0.220 NA
HETATM   31  C8    D T 902      50.002  -9.542  37.796  1.00 44.76     0.182 A 
BRANCH  29  32
HETATM   32  N6    D T 902      47.535  -9.040  41.592  1.00 35.77    -0.233 NA
HETATM   33  C9    D T 902      47.731 -10.421  42.040  1.00 37.08     0.096 C 
HETATM   34  C10   D T 902      48.514  -8.052  42.066  1.00 37.64     0.096 C 
ENDBRANCH  29  32
ENDBRANCH   3  23
TORSDOF 16
ENDMDL
MODEL 6
REMARK VINA RESULT:      -8.3      6.306      9.160
REMARK  16 active torsions:
REMARK  status: ('A' for Active; 'I' for Inactive)
REMARK    1  A    between atoms: CA_2  and  CB_3 
REMARK    2  A    between atoms: CA_2  and  C_13 
REMARK    3  A    between atoms: CB_3  and  CG_4 
REMARK    4  A    between atoms: CZ_9  and  OM_11 
REMARK       I    between atoms: C_13  and  N3'_34 
REMARK    5  A    between atoms: C5'_15  and  C4'_16 
REMARK    6  A    between atoms: C1'_18  and  N9_19 
REMARK    7  A    between atoms: C6_24  and  N6_25 
REMARK    8  A    between atoms: C3'_33  and  N3'_34 
REMARK    9  A    between atoms: CA_36  and  CB_37 
REMARK   10  A    between atoms: CA_36  and  C_47 
REMARK   11  A    between atoms: CB_37  and  CG_38 
REMARK   12  A    between atoms: CZ_43  and  OM_45 
REMARK       I    between atoms: C_47  and  N3'_68 
REMARK   13  A    between atoms: C5'_49  and  C4'_50 
REMARK   14  A    between atoms: C1'_52  and  N9_53 
REMARK   15  A    between atoms: C6_58  and  N6_59 
REMARK   16  A    between atoms: C3'_67  and  N3'_68 
ROOT
HETATM    1  C4'   D T 902      55.655 -10.716  32.258  1.00 49.67     0.175 C 
HETATM    2  O4'   D T 902      55.577  -9.477  31.468  1.00 48.76    -0.332 OA
HETATM    3  C1'   D T 902      54.203  -9.193  31.122  1.00 45.63     0.241 C 
HETATM    4  C2'   D T 902      53.379 -10.141  31.985  1.00 45.68     0.226 C 
HETATM    5  O2'   D T 902      53.101  -9.517  33.256  1.00 42.28    -0.216 OA
HETATM    6  C3'   D T 902      54.294 -11.397  31.953  1.00 49.36     0.171 C 
ENDROOT
BRANCH   6   7
HETATM    7  N3'   D T 902      53.872 -12.678  32.591  1.00 44.90    -0.233 NA
HETATM    8  C     D T 902      54.153 -13.870  32.109  1.00 55.02     0.289 C 
HETATM    9  O     D T 902      54.738 -14.031  31.058  0.36 59.82    -0.268 OA
BRANCH   8  10
HETATM   10  CA    D T 902      53.727 -15.074  32.892  1.00 61.14     0.385 C 
HETATM   11  N     D T 902      53.611 -16.238  32.024  1.00 70.78     0.626 N 
BRANCH  10  12
HETATM   12  CB    D T 902      54.722 -15.312  34.042  1.00 57.12     0.075 C 
BRANCH  12  13
HETATM   13  CG    D T 902      54.040 -15.747  35.312  1.00 52.02    -0.019 A 
HETATM   14  CD1   D T 902      54.233 -17.063  35.745  1.00 55.35    -0.002 A 
HETATM   15  CE1   D T 902      53.634 -17.509  36.912  1.00 51.84     0.024 A 
HETATM   16  CZ    D T 902      52.830 -16.649  37.680  1.00 52.04     0.094 A 
HETATM   17  CE2   D T 902      52.612 -15.324  37.260  1.00 48.31     0.024 A 
HETATM   18  CD2   D T 902      53.235 -14.885  36.069  1.00 49.34    -0.002 A 
BRANCH  16  19
HETATM   19  OM    D T 902      52.304 -17.248  38.795  1.00 51.25    -0.328 OA
HETATM   20  CMZ   D T 902      52.485 -18.571  39.160  1.00 51.69     0.181 C 
ENDBRANCH  16  19
ENDBRANCH  12  13
ENDBRANCH  10  12
ENDBRANCH   8  10
ENDBRANCH   6   7
BRANCH   1  21
HETATM   21  C5'   D T 902      56.941 -11.546  32.005  1.00 45.65     0.214 C 
HETATM   22  O5'   D T 902      57.953 -10.732  31.395  1.00 47.75    -0.218 OA
ENDBRANCH   1  21
BRANCH   3  23
HETATM   23  N9    D T 902      53.991  -9.469  29.660  1.00 46.08    -0.270 N 
HETATM   24  C4    D T 902      54.991  -9.606  28.783  1.00 44.02     0.169 A 
HETATM   25  N3    D T 902      56.362  -9.584  28.888  1.00 44.91    -0.205 NA
HETATM   26  C5    D T 902      54.343  -9.833  27.462  1.00 41.20     0.146 A 
HETATM   27  C2    D T 902      57.166  -9.757  27.809  1.00 45.82     0.201 A 
HETATM   28  N1    D T 902      56.672  -9.997  26.572  1.00 42.80    -0.211 NA
HETATM   29  C6    D T 902      55.325 -10.024  26.332  1.00 38.49     0.142 A 
HETATM   30  N7    D T 902      52.970  -9.791  27.646  1.00 39.39    -0.220 NA
HETATM   31  C8    D T 902      52.791  -9.566  28.969  1.00 44.76     0.182 A 
BRANCH  29  32
HETATM   32  N6    D T 902      54.941 -10.318  25.024  1.00 35.77    -0.233 NA
HETATM   33  C9    D T 902      55.947  -9.987  24.011  1.00 37.08     0.096 C 
HETATM   34  C10   D T 902      54.332 -11.652  24.932  1.00 37.64     0.096 C 
ENDBRANCH  29  32
ENDBRANCH   3  23
TORSDOF 16
ENDMDL
MODEL 7
REMARK VINA RESULT:      -8.2      2.327      3.474
REMARK  16 active torsions:
REMARK  status: ('A' for Active; 'I' for Inactive)
REMARK    1  A    between atoms: CA_2  and  CB_3 
REMARK    2  A    between atoms: CA_2  and  C_13 
REMARK    3  A    between atoms: CB_3  and  CG_4 
REMARK    4  A    between atoms: CZ_9  and  OM_11 
REMARK       I    between atoms: C_13  and  N3'_34 
REMARK    5  A    between atoms: C5'_15  and  C4'_16 
REMARK    6  A    between atoms: C1'_18  and  N9_19 
REMARK    7  A    between atoms: C6_24  and  N6_25 
REMARK    8  A    between atoms: C3'_33  and  N3'_34 
REMARK    9  A    between atoms: CA_36  and  CB_37 
REMARK   10  A    between atoms: CA_36  and  C_47 
REMARK   11  A    between atoms: CB_37  and  CG_38 
REMARK   12  A    between atoms: CZ_43  and  OM_45 
REMARK       I    between atoms: C_47  and  N3'_68 
REMARK   13  A    between atoms: C5'_49  and  C4'_50 
REMARK   14  A    between atoms: C1'_52  and  N9_53 
REMARK   15  A    between atoms: C6_58  and  N6_59 
REMARK   16  A    between atoms: C3'_67  and  N3'_68 
ROOT
HETATM    1  C4'   D T 902      53.980 -12.156  34.608  1.00 49.67     0.175 C 
HETATM    2  O4'   D T 902      53.184 -10.921  34.684  1.00 48.76    -0.332 OA
HETATM    3  C1'   D T 902      52.077 -11.097  35.594  1.00 45.63     0.241 C 
HETATM    4  C2'   D T 902      52.378 -12.398  36.327  1.00 45.68     0.226 C 
HETATM    5  O2'   D T 902      53.183 -12.121  37.491  1.00 42.28    -0.216 OA
HETATM    6  C3'   D T 902      53.001 -13.223  35.167  1.00 49.36     0.171 C 
ENDROOT
BRANCH   6   7
HETATM    7  N3'   D T 902      53.386 -14.653  35.352  1.00 44.90    -0.233 NA
HETATM    8  C     D T 902      53.035 -15.624  34.537  1.00 55.02     0.289 C 
HETATM    9  O     D T 902      52.309 -15.446  33.581  0.36 59.82    -0.268 OA
BRANCH   8  10
HETATM   10  CA    D T 902      53.551 -17.003  34.806  1.00 61.14     0.385 C 
HETATM   11  N     D T 902      54.316 -17.498  33.669  1.00 70.78     0.626 N 
BRANCH  10  12
HETATM   12  CB    D T 902      54.386 -16.992  36.099  1.00 57.12     0.075 C 
BRANCH  12  13
HETATM   13  CG    D T 902      53.714 -17.734  37.224  1.00 52.02    -0.019 A 
HETATM   14  CD1   D T 902      54.074 -19.068  37.439  1.00 55.35    -0.002 A 
HETATM   15  CE1   D T 902      53.490 -19.792  38.468  1.00 51.84     0.024 A 
HETATM   16  CZ    D T 902      52.535 -19.197  39.311  1.00 52.04     0.094 A 
HETATM   17  CE2   D T 902      52.148 -17.860  39.107  1.00 48.31     0.024 A 
HETATM   18  CD2   D T 902      52.758 -17.136  38.056  1.00 49.34    -0.002 A 
BRANCH  16  19
HETATM   19  OM    D T 902      52.049 -20.050  40.267  1.00 51.25    -0.328 OA
HETATM   20  CMZ   D T 902      50.723 -20.421  40.418  1.00 51.69     0.181 C 
ENDBRANCH  16  19
ENDBRANCH  12  13
ENDBRANCH  10  12
ENDBRANCH   8  10
ENDBRANCH   6   7
BRANCH   1  21
HETATM   21  C5'   D T 902      54.603 -12.421  33.212  1.00 45.65     0.214 C 
HETATM   22  O5'   D T 902      55.798 -13.206  33.334  1.00 47.75    -0.218 OA
ENDBRANCH   1  21
BRANCH   3  23
HETATM   23  N9    D T 902      50.799 -11.200  34.809  1.00 46.08    -0.270 N 
HETATM   24  C4    D T 902      49.614 -11.474  35.362  1.00 44.02     0.169 A 
HETATM   25  N3    D T 902      49.191 -11.691  36.653  1.00 44.91    -0.205 NA
HETATM   26  C5    D T 902      48.640 -11.513  34.237  1.00 41.20     0.146 A 
HETATM   27  C2    D T 902      47.892 -11.954  36.946  1.00 45.82     0.201 A 
HETATM   28  N1    D T 902      46.929 -11.983  35.996  1.00 42.80    -0.211 NA
HETATM   29  C6    D T 902      47.225 -11.803  34.672  1.00 38.49     0.142 A 
HETATM   30  N7    D T 902      49.335 -11.278  33.061  1.00 39.39    -0.220 NA
HETATM   31  C8    D T 902      50.625 -11.100  33.436  1.00 44.76     0.182 A 
BRANCH  29  32
HETATM   32  N6    D T 902      46.140 -11.818  33.794  1.00 35.77    -0.233 NA
HETATM   33  C9    D T 902      46.155 -12.929  32.838  1.00 37.08     0.096 C 
HETATM   34  C10   D T 902      44.875 -11.579  34.502  1.00 37.64     0.096 C 
ENDBRANCH  29  32
ENDBRANCH   3  23
TORSDOF 16
ENDMDL
MODEL 8
REMARK VINA RESULT:      -8.2      5.687      8.363
REMARK  16 active torsions:
REMARK  status: ('A' for Active; 'I' for Inactive)
REMARK    1  A    between atoms: CA_2  and  CB_3 
REMARK    2  A    between atoms: CA_2  and  C_13 
REMARK    3  A    between atoms: CB_3  and  CG_4 
REMARK    4  A    between atoms: CZ_9  and  OM_11 
REMARK       I    between atoms: C_13  and  N3'_34 
REMARK    5  A    between atoms: C5'_15  and  C4'_16 
REMARK    6  A    between atoms: C1'_18  and  N9_19 
REMARK    7  A    between atoms: C6_24  and  N6_25 
REMARK    8  A    between atoms: C3'_33  and  N3'_34 
REMARK    9  A    between atoms: CA_36  and  CB_37 
REMARK   10  A    between atoms: CA_36  and  C_47 
REMARK   11  A    between atoms: CB_37  and  CG_38 
REMARK   12  A    between atoms: CZ_43  and  OM_45 
REMARK       I    between atoms: C_47  and  N3'_68 
REMARK   13  A    between atoms: C5'_49  and  C4'_50 
REMARK   14  A    between atoms: C1'_52  and  N9_53 
REMARK   15  A    between atoms: C6_58  and  N6_59 
REMARK   16  A    between atoms: C3'_67  and  N3'_68 
ROOT
HETATM    1  C4'   D T 902      56.561 -13.090  31.641  1.00 49.67     0.175 C 
HETATM    2  O4'   D T 902      56.843 -11.875  30.861  1.00 48.76    -0.332 OA
HETATM    3  C1'   D T 902      56.124 -10.751  31.414  1.00 45.63     0.241 C 
HETATM    4  C2'   D T 902      55.613 -11.239  32.763  1.00 45.68     0.226 C 
HETATM    5  O2'   D T 902      56.611 -10.994  33.775  1.00 42.28    -0.216 OA
HETATM    6  C3'   D T 902      55.262 -12.710  32.401  1.00 49.36     0.171 C 
ENDROOT
BRANCH   6   7
HETATM    7  N3'   D T 902      54.611 -13.617  33.391  1.00 44.90    -0.233 NA
HETATM    8  C     D T 902      53.327 -13.599  33.676  1.00 55.02     0.289 C 
HETATM    9  O     D T 902      52.560 -12.792  33.193  0.36 59.82    -0.268 OA
BRANCH   8  10
HETATM   10  CA    D T 902      52.796 -14.615  34.639  1.00 61.14     0.385 C 
HETATM   11  N     D T 902      51.555 -15.195  34.144  1.00 70.78     0.626 N 
BRANCH  10  12
HETATM   12  CB    D T 902      53.871 -15.687  34.893  1.00 57.12     0.075 C 
BRANCH  12  13
HETATM   13  CG    D T 902      53.598 -16.492  36.137  1.00 52.02    -0.019 A 
HETATM   14  CD1   D T 902      54.184 -17.757  36.243  1.00 55.35    -0.002 A 
HETATM   15  CE1   D T 902      53.971 -18.533  37.372  1.00 51.84     0.024 A 
HETATM   16  CZ    D T 902      53.170 -18.060  38.427  1.00 52.04     0.094 A 
HETATM   17  CE2   D T 902      52.561 -16.796  38.337  1.00 48.31     0.024 A 
HETATM   18  CD2   D T 902      52.793 -16.016  37.180  1.00 49.34    -0.002 A 
BRANCH  16  19
HETATM   19  OM    D T 902      53.052 -18.952  39.460  1.00 51.25    -0.328 OA
HETATM   20  CMZ   D T 902      53.341 -20.304  39.395  1.00 51.69     0.181 C 
ENDBRANCH  16  19
ENDBRANCH  12  13
ENDBRANCH  10  12
ENDBRANCH   8  10
ENDBRANCH   6   7
BRANCH   1  21
HETATM   21  C5'   D T 902      56.538 -14.392  30.796  1.00 45.65     0.214 C 
HETATM   22  O5'   D T 902      56.143 -14.108  29.446  1.00 47.75    -0.218 OA
ENDBRANCH   1  21
BRANCH   3  23
HETATM   23  N9    D T 902      54.986 -10.390  30.501  1.00 46.08    -0.270 N 
HETATM   24  C4    D T 902      55.077 -10.405  29.168  1.00 44.02     0.169 A 
HETATM   25  N3    D T 902      56.076 -10.738  28.283  1.00 44.91    -0.205 NA
HETATM   26  C5    D T 902      53.750  -9.955  28.665  1.00 41.20     0.146 A 
HETATM   27  C2    D T 902      55.897 -10.664  26.940  1.00 45.82     0.201 A 
HETATM   28  N1    D T 902      54.719 -10.293  26.387  1.00 42.80    -0.211 NA
HETATM   29  C6    D T 902      53.654  -9.917  27.160  1.00 38.49     0.142 A 
HETATM   30  N7    D T 902      52.950  -9.674  29.762  1.00 39.39    -0.220 NA
HETATM   31  C8    D T 902      53.719  -9.939  30.845  1.00 44.76     0.182 A 
BRANCH  29  32
HETATM   32  N6    D T 902      52.483  -9.592  26.474  1.00 35.77    -0.233 NA
HETATM   33  C9    D T 902      52.412  -8.197  26.031  1.00 37.08     0.096 C 
HETATM   34  C10   D T 902      52.147 -10.615  25.474  1.00 37.64     0.096 C 
ENDBRANCH  29  32
ENDBRANCH   3  23
TORSDOF 16
ENDMDL
MODEL 9
REMARK VINA RESULT:      -8.2      2.515      9.146
REMARK  16 active torsions:
REMARK  status: ('A' for Active; 'I' for Inactive)
REMARK    1  A    between atoms: CA_2  and  CB_3 
REMARK    2  A    between atoms: CA_2  and  C_13 
REMARK    3  A    between atoms: CB_3  and  CG_4 
REMARK    4  A    between atoms: CZ_9  and  OM_11 
REMARK       I    between atoms: C_13  and  N3'_34 
REMARK    5  A    between atoms: C5'_15  and  C4'_16 
REMARK    6  A    between atoms: C1'_18  and  N9_19 
REMARK    7  A    between atoms: C6_24  and  N6_25 
REMARK    8  A    between atoms: C3'_33  and  N3'_34 
REMARK    9  A    between atoms: CA_36  and  CB_37 
REMARK   10  A    between atoms: CA_36  and  C_47 
REMARK   11  A    between atoms: CB_37  and  CG_38 
REMARK   12  A    between atoms: CZ_43  and  OM_45 
REMARK       I    between atoms: C_47  and  N3'_68 
REMARK   13  A    between atoms: C5'_49  and  C4'_50 
REMARK   14  A    between atoms: C1'_52  and  N9_53 
REMARK   15  A    between atoms: C6_58  and  N6_59 
REMARK   16  A    between atoms: C3'_67  and  N3'_68 
ROOT
HETATM    1  C4'   D T 902      50.772 -11.911  36.245  1.00 49.67     0.175 C 
HETATM    2  O4'   D T 902      51.694 -12.614  35.338  1.00 48.76    -0.332 OA
HETATM    3  C1'   D T 902      51.227 -13.959  35.098  1.00 45.63     0.241 C 
HETATM    4  C2'   D T 902      49.805 -13.982  35.646  1.00 45.68     0.226 C 
HETATM    5  O2'   D T 902      48.885 -13.566  34.617  1.00 42.28    -0.216 OA
HETATM    6  C3'   D T 902      49.985 -13.079  36.898  1.00 49.36     0.171 C 
ENDROOT
BRANCH   6   7
HETATM    7  N3'   D T 902      48.868 -12.859  37.861  1.00 44.90    -0.233 NA
HETATM    8  C     D T 902      48.766 -13.465  39.024  1.00 55.02     0.289 C 
HETATM    9  O     D T 902      49.554 -14.310  39.394  0.36 59.82    -0.268 OA
BRANCH   8  10
HETATM   10  CA    D T 902      47.627 -13.096  39.924  1.00 61.14     0.385 C 
HETATM   11  N     D T 902      47.293 -14.201  40.813  1.00 70.78     0.626 N 
BRANCH  10  12
HETATM   12  CB    D T 902      47.988 -11.820  40.705  1.00 57.12     0.075 C 
BRANCH  12  13
HETATM   13  CG    D T 902      47.698 -10.566  39.923  1.00 52.02    -0.019 A 
HETATM   14  CD1   D T 902      48.783  -9.800  39.482  1.00 55.35    -0.002 A 
HETATM   15  CE1   D T 902      48.569  -8.643  38.751  1.00 51.84     0.024 A 
HETATM   16  CZ    D T 902      47.264  -8.223  38.437  1.00 52.04     0.094 A 
HETATM   17  CE2   D T 902      46.157  -8.970  38.879  1.00 48.31     0.024 A 
HETATM   18  CD2   D T 902      46.395 -10.152  39.619  1.00 49.34    -0.002 A 
BRANCH  16  19
HETATM   19  OM    D T 902      47.227  -7.056  37.720  1.00 51.25    -0.328 OA
HETATM   20  CMZ   D T 902      48.293  -6.494  37.038  1.00 51.69     0.181 C 
ENDBRANCH  16  19
ENDBRANCH  12  13
ENDBRANCH  10  12
ENDBRANCH   8  10
ENDBRANCH   6   7
BRANCH   1  21
HETATM   21  C5'   D T 902      51.468 -10.900  37.194  1.00 45.65     0.214 C 
HETATM   22  O5'   D T 902      52.883 -11.137  37.232  1.00 47.75    -0.218 OA
ENDBRANCH   1  21
BRANCH   3  23
HETATM   23  N9    D T 902      52.107 -14.931  35.832  1.00 46.08    -0.270 N 
HETATM   24  C4    D T 902      52.973 -15.747  35.223  1.00 44.02     0.169 A 
HETATM   25  N3    D T 902      53.342 -15.939  33.912  1.00 44.91    -0.205 NA
HETATM   26  C5    D T 902      53.604 -16.550  36.305  1.00 41.20     0.146 A 
HETATM   27  C2    D T 902      54.275 -16.859  33.559  1.00 45.82     0.201 A 
HETATM   28  N1    D T 902      54.924 -17.617  34.472  1.00 42.80    -0.211 NA
HETATM   29  C6    D T 902      54.633 -17.535  35.807  1.00 38.49     0.142 A 
HETATM   30  N7    D T 902      53.039 -16.163  37.510  1.00 39.39    -0.220 NA
HETATM   31  C8    D T 902      52.143 -15.197  37.193  1.00 44.76     0.182 A 
BRANCH  29  32
HETATM   32  N6    D T 902      55.396 -18.340  36.652  1.00 35.77    -0.233 NA
HETATM   33  C9    D T 902      54.642 -19.415  37.304  1.00 37.08     0.096 C 
HETATM   34  C10   D T 902      56.668 -18.721  36.024  1.00 37.64     0.096 C 
ENDBRANCH  29  32
ENDBRANCH   3  23
TORSDOF 16
ENDMDL
