MODEL 1
REMARK VINA RESULT:    -8.000      0.000      0.000
REMARK INTER + INTRA:          -9.232
REMARK INTER:                  -8.935
REMARK INTRA:                  -0.297
REMARK UNBOUND:                -0.297
REMARK  2 active torsions:
REMARK  status: ('A' for Active; 'I' for Inactive)
REMARK    1  A    between atoms: C5_4  and  O7_13 
REMARK    2  A    between atoms: C8_10  and  O7_13 
ROOT
HETATM    1  O7    D T 302      23.283   7.899  16.756  1.00 18.94    -0.304 OA
ENDROOT
BRANCH   1   2
HETATM    2  C5    D T 302      23.214   9.256  17.013  1.00 21.43     0.125 A 
HETATM    3  C6    D T 302      21.895   9.916  16.916  1.00 20.92     0.154 A 
HETATM    4  C1    D T 302      21.754  11.278  17.194  1.00 18.86     0.041 A 
HETATM    5  O17   D T 302      20.913   9.158  16.484  1.00 23.73    -0.188 OA
HETATM    6  C2    D T 302      22.887  11.942  17.626  1.00 18.21     0.060 A 
HETATM    7  C3    D T 302      24.176  11.340  17.704  1.00 18.31     0.014 A 
HETATM    8 CL14   D T 302      22.837  13.701  17.901  1.00 21.87    -0.082 Cl
HETATM    9  C4    D T 302      24.319   9.965  17.469  1.00 19.91     0.028 A 
ENDBRANCH   1   2
BRANCH   1  10
HETATM   10  C8    D T 302      23.989   7.532  15.680  1.00 22.36     0.111 A 
HETATM   11  C9    D T 302      24.546   6.174  15.758  1.00 23.47     0.081 A 
HETATM   12  C10   D T 302      25.307   5.704  14.694  1.00 24.57     0.025 A 
HETATM   13 CL16   D T 302      24.307   5.184  17.185  1.00 28.45    -0.080 Cl
HETATM   14  C11   D T 302      25.501   6.569  13.639  1.00 27.57     0.059 A 
HETATM   15  C12   D T 302      24.953   7.857  13.516  1.00 26.49     0.013 A 
HETATM   16 CL15   D T 302      26.522   5.951  12.347  1.00 30.18    -0.082 Cl
HETATM   17  C13   D T 302      24.174   8.332  14.569  1.00 23.23     0.026 A 
ENDBRANCH   1  10
TORSDOF 2
ENDMDL
MODEL 2
REMARK VINA RESULT:    -7.906      1.457      2.035
REMARK INTER + INTRA:          -9.127
REMARK INTER:                  -8.905
REMARK INTRA:                  -0.222
REMARK UNBOUND:                -0.297
REMARK  2 active torsions:
REMARK  status: ('A' for Active; 'I' for Inactive)
REMARK    1  A    between atoms: C5_4  and  O7_13 
REMARK    2  A    between atoms: C8_10  and  O7_13 
ROOT
HETATM    1  O7    D T 302      23.590   7.823  16.901  1.00 18.94    -0.304 OA
ENDROOT
BRANCH   1   2
HETATM    2  C5    D T 302      22.581   8.769  16.865  1.00 21.43     0.125 A 
HETATM    3  C6    D T 302      22.793  10.040  17.589  1.00 20.92     0.154 A 
HETATM    4  C1    D T 302      21.825  11.047  17.564  1.00 18.86     0.041 A 
HETATM    5  O17   D T 302      23.896  10.111  18.297  1.00 23.73    -0.188 OA
HETATM    6  C2    D T 302      20.710  10.817  16.780  1.00 18.21     0.060 A 
HETATM    7  C3    D T 302      20.466   9.591  16.094  1.00 18.31     0.014 A 
HETATM    8 CL14   D T 302      19.371  11.990  16.770  1.00 21.87    -0.082 Cl
HETATM    9  C4    D T 302      21.450   8.593  16.076  1.00 19.91     0.028 A 
ENDBRANCH   1   2
BRANCH   1  10
HETATM   10  C8    D T 302      24.182   7.539  15.736  1.00 22.36     0.111 A 
HETATM   11  C9    D T 302      24.612   6.140  15.602  1.00 23.47     0.081 A 
HETATM   12  C10   D T 302      25.249   5.747  14.431  1.00 24.57     0.025 A 
HETATM   13 CL16   D T 302      24.379   4.999  16.912  1.00 28.45    -0.080 Cl
HETATM   14  C11   D T 302      25.451   6.721  13.477  1.00 27.57     0.059 A 
HETATM   15  C12   D T 302      25.021   8.057  13.557  1.00 26.49     0.013 A 
HETATM   16 CL15   D T 302      26.317   6.191  12.042  1.00 30.18    -0.082 Cl
HETATM   17  C13   D T 302      24.365   8.457  14.720  1.00 23.23     0.026 A 
ENDBRANCH   1  10
TORSDOF 2
ENDMDL
MODEL 3
REMARK VINA RESULT:    -7.780      1.878      5.988
REMARK INTER + INTRA:          -8.986
REMARK INTER:                  -8.607
REMARK INTRA:                  -0.379
REMARK UNBOUND:                -0.297
REMARK  2 active torsions:
REMARK  status: ('A' for Active; 'I' for Inactive)
REMARK    1  A    between atoms: C5_4  and  O7_13 
REMARK    2  A    between atoms: C8_10  and  O7_13 
ROOT
HETATM    1  O7    D T 302      23.682   8.021  16.942  1.00 18.94    -0.304 OA
ENDROOT
BRANCH   1   2
HETATM    2  C5    D T 302      24.252   7.375  15.861  1.00 21.43     0.125 A 
HETATM    3  C6    D T 302      24.448   5.912  15.949  1.00 20.92     0.154 A 
HETATM    4  C1    D T 302      24.990   5.197  14.878  1.00 18.86     0.041 A 
HETATM    5  O17   D T 302      24.153   5.371  17.108  1.00 23.73    -0.188 OA
HETATM    6  C2    D T 302      25.261   5.914  13.728  1.00 18.21     0.060 A 
HETATM    7  C3    D T 302      25.108   7.327  13.622  1.00 18.31     0.014 A 
HETATM    8 CL14   D T 302      26.054   5.115  12.347  1.00 21.87    -0.082 Cl
HETATM    9  C4    D T 302      24.524   8.046  14.674  1.00 19.91     0.028 A 
ENDBRANCH   1   2
BRANCH   1  10
HETATM   10  C8    D T 302      22.695   8.881  16.669  1.00 22.36     0.111 A 
HETATM   11  C9    D T 302      23.036  10.290  16.912  1.00 23.47     0.081 A 
HETATM   12  C10   D T 302      22.072  11.261  16.670  1.00 24.57     0.025 A 
HETATM   13 CL16   D T 302      24.608  10.738  17.549  1.00 28.45    -0.080 Cl
HETATM   14  C11   D T 302      20.842  10.820  16.232  1.00 27.57     0.059 A 
HETATM   15  C12   D T 302      20.494   9.487  15.955  1.00 26.49     0.013 A 
HETATM   16 CL15   D T 302      19.637  12.080  16.001  1.00 30.18    -0.082 Cl
HETATM   17  C13   D T 302      21.459   8.506  16.177  1.00 23.23     0.026 A 
ENDBRANCH   1  10
TORSDOF 2
ENDMDL
MODEL 4
REMARK VINA RESULT:    -7.771      1.599      5.956
REMARK INTER + INTRA:          -8.976
REMARK INTER:                  -8.567
REMARK INTRA:                  -0.409
REMARK UNBOUND:                -0.297
REMARK  2 active torsions:
REMARK  status: ('A' for Active; 'I' for Inactive)
REMARK    1  A    between atoms: C5_4  and  O7_13 
REMARK    2  A    between atoms: C8_10  and  O7_13 
ROOT
HETATM    1  O7    D T 302      23.134   7.743  16.836  1.00 18.94    -0.304 OA
ENDROOT
BRANCH   1   2
HETATM    2  C5    D T 302      23.932   7.138  15.882  1.00 21.43     0.125 A 
HETATM    3  C6    D T 302      24.524   5.822  16.204  1.00 20.92     0.154 A 
HETATM    4  C1    D T 302      25.314   5.146  15.271  1.00 18.86     0.041 A 
HETATM    5  O17   D T 302      24.317   5.392  17.427  1.00 23.73    -0.188 OA
HETATM    6  C2    D T 302      25.449   5.737  14.028  1.00 18.21     0.060 A 
HETATM    7  C3    D T 302      24.913   7.016  13.699  1.00 18.31     0.014 A 
HETATM    8 CL14   D T 302      26.523   5.009  12.808  1.00 21.87    -0.082 Cl
HETATM    9  C4    D T 302      24.084   7.681  14.611  1.00 19.91     0.028 A 
ENDBRANCH   1   2
BRANCH   1  10
HETATM   10  C8    D T 302      23.255   9.069  16.960  1.00 22.36     0.111 A 
HETATM   11  C9    D T 302      22.075   9.828  16.521  1.00 23.47     0.081 A 
HETATM   12  C10   D T 302      22.106  11.214  16.599  1.00 24.57     0.025 A 
HETATM   13 CL16   D T 302      20.673   9.006  15.861  1.00 28.45    -0.080 Cl
HETATM   14  C11   D T 302      23.270  11.784  17.069  1.00 27.57     0.059 A 
HETATM   15  C12   D T 302      24.401  11.089  17.530  1.00 26.49     0.013 A 
HETATM   16 CL15   D T 302      23.284  13.542  17.088  1.00 30.18    -0.082 Cl
HETATM   17  C13   D T 302      24.374   9.697  17.473  1.00 23.23     0.026 A 
ENDBRANCH   1  10
TORSDOF 2
ENDMDL
MODEL 5
REMARK VINA RESULT:    -7.679     10.818     12.680
REMARK INTER + INTRA:          -8.874
REMARK INTER:                  -8.786
REMARK INTRA:                  -0.089
REMARK UNBOUND:                -0.297
REMARK  2 active torsions:
REMARK  status: ('A' for Active; 'I' for Inactive)
REMARK    1  A    between atoms: C5_4  and  O7_13 
REMARK    2  A    between atoms: C8_10  and  O7_13 
ROOT
HETATM    1  O7    D T 302      13.489  10.281  10.563  1.00 18.94    -0.304 OA
ENDROOT
BRANCH   1   2
HETATM    2  C5    D T 302      13.959  10.295  11.863  1.00 21.43     0.125 A 
HETATM    3  C6    D T 302      13.938   9.028  12.625  1.00 20.92     0.154 A 
HETATM    4  C1    D T 302      14.428   8.970  13.931  1.00 18.86     0.041 A 
HETATM    5  O17   D T 302      13.367   8.013  12.018  1.00 23.73    -0.188 OA
HETATM    6  C2    D T 302      14.988  10.129  14.435  1.00 18.21     0.060 A 
HETATM    7  C3    D T 302      14.998  11.371  13.736  1.00 18.31     0.014 A 
HETATM    8 CL14   D T 302      15.540  10.188  16.128  1.00 21.87    -0.082 Cl
HETATM    9  C4    D T 302      14.550  11.429  12.410  1.00 19.91     0.028 A 
ENDBRANCH   1   2
BRANCH   1  10
HETATM   10  C8    D T 302      12.898  11.401  10.132  1.00 22.36     0.111 A 
HETATM   11  C9    D T 302      11.572  11.648  10.716  1.00 23.47     0.081 A 
HETATM   12  C10   D T 302      10.870  12.780  10.322  1.00 24.57     0.025 A 
HETATM   13 CL16   D T 302      10.860  10.510  11.844  1.00 28.45    -0.080 Cl
HETATM   14  C11   D T 302      11.472  13.589   9.382  1.00 27.57     0.059 A 
HETATM   15  C12   D T 302      12.752  13.403   8.832  1.00 26.49     0.013 A 
HETATM   16 CL15   D T 302      10.518  14.974   8.869  1.00 30.18    -0.082 Cl
HETATM   17  C13   D T 302      13.472  12.279   9.233  1.00 23.23     0.026 A 
ENDBRANCH   1  10
TORSDOF 2
ENDMDL
MODEL 6
REMARK VINA RESULT:    -7.608     10.825     12.467
REMARK INTER + INTRA:          -8.795
REMARK INTER:                  -8.655
REMARK INTRA:                  -0.140
REMARK UNBOUND:                -0.297
REMARK  2 active torsions:
REMARK  status: ('A' for Active; 'I' for Inactive)
REMARK    1  A    between atoms: C5_4  and  O7_13 
REMARK    2  A    between atoms: C8_10  and  O7_13 
ROOT
HETATM    1  O7    D T 302      13.249  10.475  10.904  1.00 18.94    -0.304 OA
ENDROOT
BRANCH   1   2
HETATM    2  C5    D T 302      12.605  11.555  10.329  1.00 21.43     0.125 A 
HETATM    3  C6    D T 302      11.363  12.044  10.966  1.00 20.92     0.154 A 
HETATM    4  C1    D T 302      10.683  13.150  10.451  1.00 18.86     0.041 A 
HETATM    5  O17   D T 302      10.926  11.328  11.976  1.00 23.73    -0.188 OA
HETATM    6  C2    D T 302      11.266  13.791   9.374  1.00 18.21     0.060 A 
HETATM    7  C3    D T 302      12.446  13.327   8.722  1.00 18.31     0.014 A 
HETATM    8 CL14   D T 302      10.423  15.142   8.578  1.00 21.87    -0.082 Cl
HETATM    9  C4    D T 302      13.160  12.246   9.257  1.00 19.91     0.028 A 
ENDBRANCH   1   2
BRANCH   1  10
HETATM   10  C8    D T 302      14.053  10.744  11.939  1.00 22.36     0.111 A 
HETATM   11  C9    D T 302      13.858   9.863  13.100  1.00 23.47     0.081 A 
HETATM   12  C10   D T 302      14.637  10.069  14.232  1.00 24.57     0.025 A 
HETATM   13 CL16   D T 302      12.628   8.613  13.084  1.00 28.45    -0.080 Cl
HETATM   14  C11   D T 302      15.534  11.114  14.186  1.00 27.57     0.059 A 
HETATM   15  C12   D T 302      15.772  11.951  13.082  1.00 26.49     0.013 A 
HETATM   16 CL15   D T 302      16.452  11.374  15.664  1.00 30.18    -0.082 Cl
HETATM   17  C13   D T 302      15.008  11.741  11.935  1.00 23.23     0.026 A 
ENDBRANCH   1  10
TORSDOF 2
ENDMDL
MODEL 7
REMARK VINA RESULT:    -7.551     10.377     11.921
REMARK INTER + INTRA:          -8.731
REMARK INTER:                  -8.179
REMARK INTRA:                  -0.551
REMARK UNBOUND:                -0.297
REMARK  2 active torsions:
REMARK  status: ('A' for Active; 'I' for Inactive)
REMARK    1  A    between atoms: C5_4  and  O7_13 
REMARK    2  A    between atoms: C8_10  and  O7_13 
ROOT
HETATM    1  O7    D T 302      14.449  10.298  10.652  1.00 18.94    -0.304 OA
ENDROOT
BRANCH   1   2
HETATM    2  C5    D T 302      13.569  11.305  10.299  1.00 21.43     0.125 A 
HETATM    3  C6    D T 302      14.078  12.409   9.458  1.00 20.92     0.154 A 
HETATM    4  C1    D T 302      13.232  13.439   9.041  1.00 18.86     0.041 A 
HETATM    5  O17   D T 302      15.367  12.382   9.208  1.00 23.73    -0.188 OA
HETATM    6  C2    D T 302      11.900  13.330   9.397  1.00 18.21     0.060 A 
HETATM    7  C3    D T 302      11.387  12.293  10.229  1.00 18.31     0.014 A 
HETATM    8 CL14   D T 302      10.764  14.645   9.009  1.00 21.87    -0.082 Cl
HETATM    9  C4    D T 302      12.217  11.232  10.615  1.00 19.91     0.028 A 
ENDBRANCH   1   2
BRANCH   1  10
HETATM   10  C8    D T 302      14.772  10.217  11.948  1.00 22.36     0.111 A 
HETATM   11  C9    D T 302      14.280   9.005  12.619  1.00 23.47     0.081 A 
HETATM   12  C10   D T 302      14.553   8.834  13.970  1.00 24.57     0.025 A 
HETATM   13 CL16   D T 302      13.319   7.824  11.750  1.00 28.45    -0.080 Cl
HETATM   14  C11   D T 302      15.258   9.840  14.594  1.00 27.57     0.059 A 
HETATM   15  C12   D T 302      15.774  10.992  13.976  1.00 26.49     0.013 A 
HETATM   16 CL15   D T 302      15.524   9.607  16.317  1.00 30.18    -0.082 Cl
HETATM   17  C13   D T 302      15.522  11.165  12.616  1.00 23.23     0.026 A 
ENDBRANCH   1  10
TORSDOF 2
ENDMDL
MODEL 8
REMARK VINA RESULT:    -7.453      2.808      3.678
REMARK INTER + INTRA:          -8.621
REMARK INTER:                  -8.081
REMARK INTRA:                  -0.540
REMARK UNBOUND:                -0.297
REMARK  2 active torsions:
REMARK  status: ('A' for Active; 'I' for Inactive)
REMARK    1  A    between atoms: C5_4  and  O7_13 
REMARK    2  A    between atoms: C8_10  and  O7_13 
ROOT
HETATM    1  O7    D T 302      22.958   9.871  15.767  1.00 18.94    -0.304 OA
ENDROOT
BRANCH   1   2
HETATM    2  C5    D T 302      21.580   9.860  15.652  1.00 21.43     0.125 A 
HETATM    3  C6    D T 302      20.779  10.109  16.869  1.00 20.92     0.154 A 
HETATM    4  C1    D T 302      19.383  10.142  16.813  1.00 18.86     0.041 A 
HETATM    5  O17   D T 302      21.463  10.216  17.985  1.00 23.73    -0.188 OA
HETATM    6  C2    D T 302      18.810  10.001  15.563  1.00 18.21     0.060 A 
HETATM    7  C3    D T 302      19.554   9.733  14.377  1.00 18.31     0.014 A 
HETATM    8 CL14   D T 302      17.038   9.919  15.400  1.00 21.87    -0.082 Cl
HETATM    9  C4    D T 302      20.955   9.742  14.416  1.00 19.91     0.028 A 
ENDBRANCH   1   2
BRANCH   1  10
HETATM   10  C8    D T 302      23.593   8.747  15.416  1.00 22.36     0.111 A 
HETATM   11  C9    D T 302      24.397   8.865  14.191  1.00 23.47     0.081 A 
HETATM   12  C10   D T 302      25.087   7.748  13.736  1.00 24.57     0.025 A 
HETATM   13 CL16   D T 302      24.444  10.366  13.287  1.00 28.45    -0.080 Cl
HETATM   14  C11   D T 302      24.945   6.589  14.469  1.00 27.57     0.059 A 
HETATM   15  C12   D T 302      24.216   6.452  15.663  1.00 26.49     0.013 A 
HETATM   16 CL15   D T 302      25.785   5.188  13.819  1.00 30.18    -0.082 Cl
HETATM   17  C13   D T 302      23.535   7.571  16.138  1.00 23.23     0.026 A 
ENDBRANCH   1  10
TORSDOF 2
ENDMDL
MODEL 9
REMARK VINA RESULT:    -7.408     10.192     12.079
REMARK INTER + INTRA:          -8.572
REMARK INTER:                  -8.010
REMARK INTRA:                  -0.562
REMARK UNBOUND:                -0.297
REMARK  2 active torsions:
REMARK  status: ('A' for Active; 'I' for Inactive)
REMARK    1  A    between atoms: C5_4  and  O7_13 
REMARK    2  A    between atoms: C8_10  and  O7_13 
ROOT
HETATM    1  O7    D T 302      14.447  10.269  10.661  1.00 18.94    -0.304 OA
ENDROOT
BRANCH   1   2
HETATM    2  C5    D T 302      14.727  10.165  12.011  1.00 21.43     0.125 A 
HETATM    3  C6    D T 302      14.389   8.900  12.697  1.00 20.92     0.154 A 
HETATM    4  C1    D T 302      14.676   8.722  14.052  1.00 18.86     0.041 A 
HETATM    5  O17   D T 302      13.748   8.016  11.969  1.00 23.73    -0.188 OA
HETATM    6  C2    D T 302      15.345   9.753  14.685  1.00 18.21     0.060 A 
HETATM    7  C3    D T 302      15.659  10.994  14.058  1.00 18.31     0.014 A 
HETATM    8 CL14   D T 302      15.658   9.669  16.436  1.00 21.87    -0.082 Cl
HETATM    9  C4    D T 302      15.416  11.165  12.689  1.00 19.91     0.028 A 
ENDBRANCH   1   2
BRANCH   1  10
HETATM   10  C8    D T 302      13.545  11.192  10.309  1.00 22.36     0.111 A 
HETATM   11  C9    D T 302      14.089  12.287   9.493  1.00 23.47     0.081 A 
HETATM   12  C10   D T 302      13.234  13.304   9.086  1.00 24.57     0.025 A 
HETATM   13 CL16   D T 302      15.793  12.343   9.084  1.00 28.45    -0.080 Cl
HETATM   14  C11   D T 302      11.923  13.217   9.504  1.00 27.57     0.059 A 
HETATM   15  C12   D T 302      11.363  12.168  10.253  1.00 26.49     0.013 A 
HETATM   16 CL15   D T 302      10.895  14.559   9.018  1.00 30.18    -0.082 Cl
HETATM   17  C13   D T 302      12.208  11.134  10.651  1.00 23.23     0.026 A 
ENDBRANCH   1  10
TORSDOF 2
ENDMDL
