MODEL 1
REMARK VINA RESULT:      -8.1      0.000      0.000
REMARK  2 active torsions:
REMARK  status: ('A' for Active; 'I' for Inactive)
REMARK    1  A    between atoms: C5_4  and  O7_13 
REMARK    2  A    between atoms: C8_10  and  O7_13 
ROOT
HETATM    1  O7    D T 302      23.371   7.840  16.767  1.00 18.94    -0.304 OA
ENDROOT
BRANCH   1   2
HETATM    2  C5    D T 302      23.217   9.190  17.021  1.00 21.43     0.125 A 
HETATM    3  C6    D T 302      21.859   9.766  16.924  1.00 20.92     0.154 A 
HETATM    4  C1    D T 302      21.633  11.117  17.199  1.00 18.86     0.041 A 
HETATM    5  O17   D T 302      20.926   8.947  16.496  1.00 23.73    -0.188 OA
HETATM    6  C2    D T 302      22.721  11.853  17.628  1.00 18.21     0.060 A 
HETATM    7  C3    D T 302      24.046  11.333  17.705  1.00 18.31     0.014 A 
HETATM    8 CL14   D T 302      22.561  13.606  17.898  1.00 21.87    -0.082 Cl
HETATM    9  C4    D T 302      24.276   9.969  17.474  1.00 19.91     0.028 A 
ENDBRANCH   1   2
BRANCH   1  10
HETATM   10  C8    D T 302      24.034   7.516  15.651  1.00 22.36     0.111 A 
HETATM   11  C9    D T 302      24.583   6.152  15.649  1.00 23.47     0.081 A 
HETATM   12  C10   D T 302      25.300   5.724  14.539  1.00 24.57     0.025 A 
HETATM   13 CL16   D T 302      24.389   5.103  17.041  1.00 28.45    -0.080 Cl
HETATM   14  C11   D T 302      25.462   6.633  13.516  1.00 27.57     0.059 A 
HETATM   15  C12   D T 302      24.920   7.929  13.469  1.00 26.49     0.013 A 
HETATM   16 CL15   D T 302      26.430   6.066  12.161  1.00 30.18    -0.082 Cl
HETATM   17  C13   D T 302      24.184   8.363  14.570  1.00 23.23     0.026 A 
ENDBRANCH   1  10
TORSDOF 2
ENDMDL
MODEL 2
REMARK VINA RESULT:      -8.0      1.388      2.005
REMARK  2 active torsions:
REMARK  status: ('A' for Active; 'I' for Inactive)
REMARK    1  A    between atoms: C5_4  and  O7_13 
REMARK    2  A    between atoms: C8_10  and  O7_13 
ROOT
HETATM    1  O7    D T 302      23.557   7.986  16.944  1.00 18.94    -0.304 OA
ENDROOT
BRANCH   1   2
HETATM    2  C5    D T 302      22.516   8.896  16.910  1.00 21.43     0.125 A 
HETATM    3  C6    D T 302      22.714  10.204  17.571  1.00 20.92     0.154 A 
HETATM    4  C1    D T 302      21.713  11.177  17.545  1.00 18.86     0.041 A 
HETATM    5  O17   D T 302      23.841  10.340  18.230  1.00 23.73    -0.188 OA
HETATM    6  C2    D T 302      20.576  10.878  16.818  1.00 18.21     0.060 A 
HETATM    7  C3    D T 302      20.345   9.617  16.194  1.00 18.31     0.014 A 
HETATM    8 CL14   D T 302      19.198  12.007  16.814  1.00 21.87    -0.082 Cl
HETATM    9  C4    D T 302      21.361   8.651  16.177  1.00 19.91     0.028 A 
ENDBRANCH   1   2
BRANCH   1  10
HETATM   10  C8    D T 302      24.137   7.701  15.773  1.00 22.36     0.111 A 
HETATM   11  C9    D T 302      24.522   6.291  15.616  1.00 23.47     0.081 A 
HETATM   12  C10   D T 302      25.144   5.896  14.438  1.00 24.57     0.025 A 
HETATM   13 CL16   D T 302      24.255   5.138  16.910  1.00 28.45    -0.080 Cl
HETATM   14  C11   D T 302      25.375   6.878  13.499  1.00 27.57     0.059 A 
HETATM   15  C12   D T 302      24.988   8.225  13.600  1.00 26.49     0.013 A 
HETATM   16 CL15   D T 302      26.220   6.342  12.053  1.00 30.18    -0.082 Cl
HETATM   17  C13   D T 302      24.347   8.628  14.770  1.00 23.23     0.026 A 
ENDBRANCH   1  10
TORSDOF 2
ENDMDL
MODEL 3
REMARK VINA RESULT:      -7.8      1.822      5.971
REMARK  2 active torsions:
REMARK  status: ('A' for Active; 'I' for Inactive)
REMARK    1  A    between atoms: C5_4  and  O7_13 
REMARK    2  A    between atoms: C8_10  and  O7_13 
ROOT
HETATM    1  O7    D T 302      23.665   8.250  16.834  1.00 18.94    -0.304 OA
ENDROOT
BRANCH   1   2
HETATM    2  C5    D T 302      24.234   7.641  15.730  1.00 21.43     0.125 A 
HETATM    3  C6    D T 302      24.394   6.172  15.751  1.00 20.92     0.154 A 
HETATM    4  C1    D T 302      24.933   5.495  14.655  1.00 18.86     0.041 A 
HETATM    5  O17   D T 302      24.070   5.583  16.880  1.00 23.73    -0.188 OA
HETATM    6  C2    D T 302      25.236   6.258  13.543  1.00 18.21     0.060 A 
HETATM    7  C3    D T 302      25.119   7.678  13.503  1.00 18.31     0.014 A 
HETATM    8 CL14   D T 302      26.029   5.506  12.137  1.00 21.87    -0.082 Cl
HETATM    9  C4    D T 302      24.538   8.361  14.580  1.00 19.91     0.028 A 
ENDBRANCH   1   2
BRANCH   1  10
HETATM   10  C8    D T 302      22.622   9.054  16.598  1.00 22.36     0.111 A 
HETATM   11  C9    D T 302      22.888  10.478  16.849  1.00 23.47     0.081 A 
HETATM   12  C10   D T 302      21.863  11.394  16.646  1.00 24.57     0.025 A 
HETATM   13 CL16   D T 302      24.449  11.008  17.448  1.00 28.45    -0.080 Cl
HETATM   14  C11   D T 302      20.649  10.886  16.237  1.00 27.57     0.059 A 
HETATM   15  C12   D T 302      20.371   9.538  15.953  1.00 26.49     0.013 A 
HETATM   16 CL15   D T 302      19.367  12.077  16.055  1.00 30.18    -0.082 Cl
HETATM   17  C13   D T 302      21.396   8.613  16.137  1.00 23.23     0.026 A 
ENDBRANCH   1  10
TORSDOF 2
ENDMDL
MODEL 4
REMARK VINA RESULT:      -7.8      1.555      5.942
REMARK  2 active torsions:
REMARK  status: ('A' for Active; 'I' for Inactive)
REMARK    1  A    between atoms: C5_4  and  O7_13 
REMARK    2  A    between atoms: C8_10  and  O7_13 
ROOT
HETATM    1  O7    D T 302      23.137   7.838  16.575  1.00 18.94    -0.304 OA
ENDROOT
BRANCH   1   2
HETATM    2  C5    D T 302      23.989   7.295  15.632  1.00 21.43     0.125 A 
HETATM    3  C6    D T 302      24.463   5.910  15.837  1.00 20.92     0.154 A 
HETATM    4  C1    D T 302      25.301   5.295  14.904  1.00 18.86     0.041 A 
HETATM    5  O17   D T 302      24.106   5.352  16.970  1.00 23.73    -0.188 OA
HETATM    6  C2    D T 302      25.598   6.020  13.765  1.00 18.21     0.060 A 
HETATM    7  C3    D T 302      25.179   7.365  13.552  1.00 18.31     0.014 A 
HETATM    8 CL14   D T 302      26.745   5.368  12.568  1.00 21.87    -0.082 Cl
HETATM    9  C4    D T 302      24.303   7.975  14.460  1.00 19.91     0.028 A 
ENDBRANCH   1   2
BRANCH   1  10
HETATM   10  C8    D T 302      23.233   9.157  16.776  1.00 22.36     0.111 A 
HETATM   11  C9    D T 302      22.061   9.923  16.329  1.00 23.47     0.081 A 
HETATM   12  C10   D T 302      22.068  11.304  16.482  1.00 24.57     0.025 A 
HETATM   13 CL16   D T 302      20.702   9.122  15.563  1.00 28.45    -0.080 Cl
HETATM   14  C11   D T 302      23.202  11.861  17.034  1.00 27.57     0.059 A 
HETATM   15  C12   D T 302      24.322  11.156  17.506  1.00 26.49     0.013 A 
HETATM   16 CL15   D T 302      23.189  13.616  17.149  1.00 30.18    -0.082 Cl
HETATM   17  C13   D T 302      24.318   9.769  17.372  1.00 23.23     0.026 A 
ENDBRANCH   1  10
TORSDOF 2
ENDMDL
MODEL 5
REMARK VINA RESULT:      -7.8     10.796     12.707
REMARK  2 active torsions:
REMARK  status: ('A' for Active; 'I' for Inactive)
REMARK    1  A    between atoms: C5_4  and  O7_13 
REMARK    2  A    between atoms: C8_10  and  O7_13 
ROOT
HETATM    1  O7    D T 302      13.371  10.262  10.524  1.00 18.94    -0.304 OA
ENDROOT
BRANCH   1   2
HETATM    2  C5    D T 302      13.860  10.263  11.817  1.00 21.43     0.125 A 
HETATM    3  C6    D T 302      13.836   8.992  12.571  1.00 20.92     0.154 A 
HETATM    4  C1    D T 302      14.344   8.921  13.870  1.00 18.86     0.041 A 
HETATM    5  O17   D T 302      13.246   7.987  11.967  1.00 23.73    -0.188 OA
HETATM    6  C2    D T 302      14.923  10.071  14.373  1.00 18.21     0.060 A 
HETATM    7  C3    D T 302      14.936  11.317  13.681  1.00 18.31     0.014 A 
HETATM    8 CL14   D T 302      15.500  10.115  16.058  1.00 21.87    -0.082 Cl
HETATM    9  C4    D T 302      14.469  11.388  12.362  1.00 19.91     0.028 A 
ENDBRANCH   1   2
BRANCH   1  10
HETATM   10  C8    D T 302      12.806  11.398  10.099  1.00 22.36     0.111 A 
HETATM   11  C9    D T 302      11.501  11.688  10.710  1.00 23.47     0.081 A 
HETATM   12  C10   D T 302      10.826  12.840  10.326  1.00 24.57     0.025 A 
HETATM   13 CL16   D T 302      10.779  10.577  11.859  1.00 28.45    -0.080 Cl
HETATM   14  C11   D T 302      11.433  13.626   9.370  1.00 27.57     0.059 A 
HETATM   15  C12   D T 302      12.695  13.398   8.793  1.00 26.49     0.013 A 
HETATM   16 CL15   D T 302      10.512  15.038   8.871  1.00 30.18    -0.082 Cl
HETATM   17  C13   D T 302      13.388  12.254   9.185  1.00 23.23     0.026 A 
ENDBRANCH   1  10
TORSDOF 2
ENDMDL
MODEL 6
REMARK VINA RESULT:      -7.6     10.391     11.980
REMARK  2 active torsions:
REMARK  status: ('A' for Active; 'I' for Inactive)
REMARK    1  A    between atoms: C5_4  and  O7_13 
REMARK    2  A    between atoms: C8_10  and  O7_13 
ROOT
HETATM    1  O7    D T 302      14.377  10.382  10.599  1.00 18.94    -0.304 OA
ENDROOT
BRANCH   1   2
HETATM    2  C5    D T 302      13.497  11.391  10.253  1.00 21.43     0.125 A 
HETATM    3  C6    D T 302      14.006  12.502   9.420  1.00 20.92     0.154 A 
HETATM    4  C1    D T 302      13.160  13.535   9.011  1.00 18.86     0.041 A 
HETATM    5  O17   D T 302      15.295  12.477   9.170  1.00 23.73    -0.188 OA
HETATM    6  C2    D T 302      11.828  13.423   9.365  1.00 18.21     0.060 A 
HETATM    7  C3    D T 302      11.315  12.380  10.190  1.00 18.31     0.014 A 
HETATM    8 CL14   D T 302      10.692  14.741   8.987  1.00 21.87    -0.082 Cl
HETATM    9  C4    D T 302      12.145  11.316  10.568  1.00 19.91     0.028 A 
ENDBRANCH   1   2
BRANCH   1  10
HETATM   10  C8    D T 302      14.695  10.288  11.894  1.00 22.36     0.111 A 
HETATM   11  C9    D T 302      14.218   9.060  12.547  1.00 23.47     0.081 A 
HETATM   12  C10   D T 302      14.488   8.874  13.897  1.00 24.57     0.025 A 
HETATM   13 CL16   D T 302      13.278   7.877  11.657  1.00 28.45    -0.080 Cl
HETATM   14  C11   D T 302      15.176   9.882  14.537  1.00 27.57     0.059 A 
HETATM   15  C12   D T 302      15.678  11.050  13.937  1.00 26.49     0.013 A 
HETATM   16 CL15   D T 302      15.437   9.630  16.258  1.00 30.18    -0.082 Cl
HETATM   17  C13   D T 302      15.428  11.238  12.579  1.00 23.23     0.026 A 
ENDBRANCH   1  10
TORSDOF 2
ENDMDL
MODEL 7
REMARK VINA RESULT:      -7.6     10.458     12.037
REMARK  2 active torsions:
REMARK  status: ('A' for Active; 'I' for Inactive)
REMARK    1  A    between atoms: C5_4  and  O7_13 
REMARK    2  A    between atoms: C8_10  and  O7_13 
ROOT
HETATM    1  O7    D T 302      13.307  10.212  11.081  1.00 18.94    -0.304 OA
ENDROOT
BRANCH   1   2
HETATM    2  C5    D T 302      12.690  11.307  10.504  1.00 21.43     0.125 A 
HETATM    3  C6    D T 302      11.366  11.713  11.024  1.00 20.92     0.154 A 
HETATM    4  C1    D T 302      10.706  12.829  10.504  1.00 18.86     0.041 A 
HETATM    5  O17   D T 302      10.846  10.919  11.930  1.00 23.73    -0.188 OA
HETATM    6  C2    D T 302      11.381  13.558   9.543  1.00 18.21     0.060 A 
HETATM    7  C3    D T 302      12.644  13.175   9.004  1.00 18.31     0.014 A 
HETATM    8 CL14   D T 302      10.581  14.932   8.741  1.00 21.87    -0.082 Cl
HETATM    9  C4    D T 302      13.334  12.084   9.549  1.00 19.91     0.028 A 
ENDBRANCH   1   2
BRANCH   1  10
HETATM   10  C8    D T 302      14.256  10.472  11.987  1.00 22.36     0.111 A 
HETATM   11  C9    D T 302      15.620  10.154  11.542  1.00 23.47     0.081 A 
HETATM   12  C10   D T 302      16.676  10.377  12.416  1.00 24.57     0.025 A 
HETATM   13 CL16   D T 302      15.909   9.452   9.960  1.00 28.45    -0.080 Cl
HETATM   14  C11   D T 302      16.357  10.869  13.663  1.00 27.57     0.059 A 
HETATM   15  C12   D T 302      15.070  11.219  14.108  1.00 26.49     0.013 A 
HETATM   16 CL15   D T 302      17.720  11.075  14.755  1.00 30.18    -0.082 Cl
HETATM   17  C13   D T 302      14.005  11.016  13.232  1.00 23.23     0.026 A 
ENDBRANCH   1  10
TORSDOF 2
ENDMDL
MODEL 8
REMARK VINA RESULT:      -7.4     10.052     11.983
REMARK  2 active torsions:
REMARK  status: ('A' for Active; 'I' for Inactive)
REMARK    1  A    between atoms: C5_4  and  O7_13 
REMARK    2  A    between atoms: C8_10  and  O7_13 
ROOT
HETATM    1  O7    D T 302      14.426  10.214  10.751  1.00 18.94    -0.304 OA
ENDROOT
BRANCH   1   2
HETATM    2  C5    D T 302      14.729  10.119  12.097  1.00 21.43     0.125 A 
HETATM    3  C6    D T 302      14.510   8.821  12.770  1.00 20.92     0.154 A 
HETATM    4  C1    D T 302      14.825   8.653  14.120  1.00 18.86     0.041 A 
HETATM    5  O17   D T 302      13.940   7.893  12.036  1.00 23.73    -0.188 OA
HETATM    6  C2    D T 302      15.408   9.730  14.760  1.00 18.21     0.060 A 
HETATM    7  C3    D T 302      15.606  11.002  14.146  1.00 18.31     0.014 A 
HETATM    8 CL14   D T 302      15.746   9.653  16.507  1.00 21.87    -0.082 Cl
HETATM    9  C4    D T 302      15.335  11.168  12.781  1.00 19.91     0.028 A 
ENDBRANCH   1   2
BRANCH   1  10
HETATM   10  C8    D T 302      13.515  11.131  10.409  1.00 22.36     0.111 A 
HETATM   11  C9    D T 302      14.037  12.218   9.569  1.00 23.47     0.081 A 
HETATM   12  C10   D T 302      13.170  13.228   9.170  1.00 24.57     0.025 A 
HETATM   13 CL16   D T 302      15.732  12.275   9.122  1.00 28.45    -0.080 Cl
HETATM   14  C11   D T 302      11.869  13.143   9.617  1.00 27.57     0.059 A 
HETATM   15  C12   D T 302      11.329  12.101  10.390  1.00 26.49     0.013 A 
HETATM   16 CL15   D T 302      10.827  14.477   9.139  1.00 30.18    -0.082 Cl
HETATM   17  C13   D T 302      12.185  11.073  10.781  1.00 23.23     0.026 A 
ENDBRANCH   1  10
TORSDOF 2
ENDMDL
MODEL 9
REMARK VINA RESULT:      -7.3      9.906     12.238
REMARK  2 active torsions:
REMARK  status: ('A' for Active; 'I' for Inactive)
REMARK    1  A    between atoms: C5_4  and  O7_13 
REMARK    2  A    between atoms: C8_10  and  O7_13 
ROOT
HETATM    1  O7    D T 302      13.438  11.880  13.411  1.00 18.94    -0.304 OA
ENDROOT
BRANCH   1   2
HETATM    2  C5    D T 302      13.989  10.616  13.296  1.00 21.43     0.125 A 
HETATM    3  C6    D T 302      15.201  10.311  14.085  1.00 20.92     0.154 A 
HETATM    4  C1    D T 302      15.786   9.044  14.036  1.00 18.86     0.041 A 
HETATM    5  O17   D T 302      15.710  11.320  14.754  1.00 23.73    -0.188 OA
HETATM    6  C2    D T 302      15.137   8.090  13.274  1.00 18.21     0.060 A 
HETATM    7  C3    D T 302      13.984   8.362  12.482  1.00 18.31     0.014 A 
HETATM    8 CL14   D T 302      15.861   6.477  13.059  1.00 21.87    -0.082 Cl
HETATM    9  C4    D T 302      13.364   9.617  12.559  1.00 19.91     0.028 A 
ENDBRANCH   1   2
BRANCH   1  10
HETATM   10  C8    D T 302      12.877  12.387  12.308  1.00 22.36     0.111 A 
HETATM   11  C9    D T 302      13.822  13.053  11.400  1.00 23.47     0.081 A 
HETATM   12  C10   D T 302      13.334  13.624  10.231  1.00 24.57     0.025 A 
HETATM   13 CL16   D T 302      15.524  13.175  11.806  1.00 28.45    -0.080 Cl
HETATM   14  C11   D T 302      11.975  13.540  10.019  1.00 27.57     0.059 A 
HETATM   15  C12   D T 302      11.049  12.881  10.847  1.00 26.49     0.013 A 
HETATM   16 CL15   D T 302      11.398  14.332   8.559  1.00 30.18    -0.082 Cl
HETATM   17  C13   D T 302      11.531  12.289  12.013  1.00 23.23     0.026 A 
ENDBRANCH   1  10
TORSDOF 2
ENDMDL
