MODEL 1
REMARK VINA RESULT:      -7.5      0.000      0.000
REMARK  2 active torsions:
REMARK  status: ('A' for Active; 'I' for Inactive)
REMARK    1  A    between atoms: CAX_24  and  NBD_30 
REMARK    2  A    between atoms: CAY_25  and  CAZ_26 
ROOT
HETATM    1  CAE   D T 501     -11.039  30.285   8.938  1.00 28.11     0.002 A 
HETATM    2  CAF   D T 501     -11.823  30.364  11.216  1.00 31.06     0.002 A 
HETATM    3  CAG   D T 501     -11.212  31.675   8.841  1.00 28.67     0.017 A 
HETATM    4  CAH   D T 501     -12.025  31.747  11.111  1.00 30.46     0.017 A 
HETATM    5  CAK   D T 501     -11.099  27.536  11.488  1.00 23.78     0.102 A 
HETATM    6  CAL   D T 501     -10.998  23.853   8.815  1.00 24.69     0.124 A 
HETATM    7  CAM   D T 501     -11.211  27.461   9.102  1.00 24.63     0.104 A 
HETATM    8  NAS   D T 501     -11.013  26.190  11.521  1.00 20.85    -0.225 NA
HETATM    9  NAT   D T 501     -11.092  25.012   8.107  1.00 25.16    -0.162 NA
HETATM   10  CAV   D T 501     -11.320  29.628  10.138  1.00 25.80     0.003 A 
HETATM   11  CAW   D T 501     -11.178  28.221  10.253  1.00 25.02     0.038 A 
HETATM   12  CAX   D T 501     -11.734  32.399   9.908  1.00 27.25     0.056 A 
HETATM   13  CAZ   D T 501     -10.976  24.180  10.034  1.00 24.84     0.057 A 
HETATM   14  CBC   D T 501     -11.022  25.457  10.391  1.00 23.94     0.165 A 
HETATM   15  NBE   D T 501     -11.119  26.120   9.160  1.00 26.21    -0.211 N 
ENDROOT
BRANCH  13  16
HETATM   16  CAY   D T 501     -10.860  23.082  10.946  1.00 23.50     0.007 A 
HETATM   17  CAD   D T 501     -11.945  22.775  11.718  1.00 28.61     0.021 A 
HETATM   18  CAC   D T 501     -11.891  21.748  12.642  1.00 31.28     0.099 A 
HETATM   19  NAR   D T 501     -10.798  21.026  12.830  1.00 29.97    -0.244 NA
HETATM   20  CBA   D T 501      -9.697  21.259  12.115  1.00 29.39     0.081 A 
HETATM   21  CAI   D T 501      -8.540  20.488  12.321  1.00 24.64     0.019 A 
HETATM   22  CBB   D T 501      -9.675  22.323  11.147  1.00 25.45     0.018 A 
HETATM   23  CAA   D T 501      -7.402  20.751  11.606  1.00 25.05     0.002 A 
HETATM   24  CAB   D T 501      -7.366  21.760  10.675  1.00 24.88     0.000 A 
HETATM   25  CAJ   D T 501      -8.483  22.553  10.448  1.00 27.86     0.002 A 
ENDBRANCH  13  16
BRANCH  12  26
HETATM   26  NBD   D T 501     -11.944  33.871   9.781  1.00 33.43    -0.344 N 
HETATM   27  CAP   D T 501     -12.598  34.539  10.908  1.00 26.51     0.140 C 
HETATM   28  CAN   D T 501     -14.135  34.506  10.608  1.00 28.69     0.314 C 
HETATM   29  NAU   D T 501     -14.421  35.007   9.308  1.00 26.40     0.343 N 
HETATM   30  CAO   D T 501     -13.761  34.296   8.245  1.00 27.47     0.314 C 
HETATM   31  CAQ   D T 501     -12.238  34.366   8.453  1.00 29.57     0.140 C 
ENDBRANCH  12  26
TORSDOF 2
ENDMDL
MODEL 2
REMARK VINA RESULT:      -7.2      2.292      3.617
REMARK  2 active torsions:
REMARK  status: ('A' for Active; 'I' for Inactive)
REMARK    1  A    between atoms: CAX_24  and  NBD_30 
REMARK    2  A    between atoms: CAY_25  and  CAZ_26 
ROOT
HETATM    1  CAE   D T 501     -11.363  29.198  10.129  1.00 28.11     0.002 A 
HETATM    2  CAF   D T 501      -9.300  28.733   8.970  1.00 31.06     0.002 A 
HETATM    3  CAG   D T 501     -11.234  30.555   9.791  1.00 28.67     0.017 A 
HETATM    4  CAH   D T 501      -9.156  30.092   8.658  1.00 30.46     0.017 A 
HETATM    5  CAK   D T 501      -9.798  25.873   9.380  1.00 23.78     0.102 A 
HETATM    6  CAL   D T 501     -11.736  23.253  12.557  1.00 24.69     0.124 A 
HETATM    7  CAM   D T 501     -11.241  26.560  11.157  1.00 24.63     0.104 A 
HETATM    8  NAS   D T 501      -9.897  24.595   9.800  1.00 20.85    -0.225 NA
HETATM    9  NAT   D T 501     -12.069  24.566  12.687  1.00 25.16    -0.162 NA
HETATM   10  CAV   D T 501     -10.406  28.277   9.696  1.00 25.80     0.003 A 
HETATM   11  CAW   D T 501     -10.499  26.905  10.046  1.00 25.02     0.038 A 
HETATM   12  CAX   D T 501     -10.121  31.008   9.089  1.00 27.25     0.056 A 
HETATM   13  CAZ   D T 501     -10.959  23.178  11.565  1.00 24.84     0.057 A 
HETATM   14  CBC   D T 501     -10.644  24.263  10.871  1.00 23.94     0.165 A 
HETATM   15  NBE   D T 501     -11.330  25.278  11.554  1.00 26.21    -0.211 N 
ENDROOT
BRANCH  13  16
HETATM   16  CAY   D T 501     -10.510  21.853  11.256  1.00 23.50     0.007 A 
HETATM   17  CAD   D T 501      -9.479  21.341  11.991  1.00 28.61     0.021 A 
HETATM   18  CAC   D T 501      -8.975  20.081  11.725  1.00 31.28     0.099 A 
HETATM   19  NAR   D T 501      -9.452  19.322  10.751  1.00 29.97    -0.244 NA
HETATM   20  CBA   D T 501     -10.461  19.747   9.989  1.00 29.39     0.081 A 
HETATM   21  CAI   D T 501     -10.962  18.935   8.957  1.00 24.64     0.019 A 
HETATM   22  CBB   D T 501     -11.025  21.054  10.198  1.00 25.45     0.018 A 
HETATM   23  CAA   D T 501     -11.977  19.388   8.158  1.00 25.05     0.002 A 
HETATM   24  CAB   D T 501     -12.529  20.632   8.346  1.00 24.88     0.000 A 
HETATM   25  CAJ   D T 501     -12.057  21.470   9.347  1.00 27.86     0.002 A 
ENDBRANCH  13  16
BRANCH  12  26
HETATM   26  NBD   D T 501      -9.982  32.457   8.764  1.00 33.43    -0.344 N 
HETATM   27  CAP   D T 501      -8.727  32.868   8.131  1.00 26.51     0.140 C 
HETATM   28  CAN   D T 501      -7.750  33.250   9.294  1.00 28.69     0.314 C 
HETATM   29  NAU   D T 501      -8.350  34.173  10.194  1.00 26.40     0.343 N 
HETATM   30  CAO   D T 501      -9.570  33.701  10.795  1.00 27.47     0.314 C 
HETATM   31  CAQ   D T 501     -10.593  33.385   9.690  1.00 29.57     0.140 C 
ENDBRANCH  12  26
TORSDOF 2
ENDMDL
MODEL 3
REMARK VINA RESULT:      -7.1      3.938      5.333
REMARK  2 active torsions:
REMARK  status: ('A' for Active; 'I' for Inactive)
REMARK    1  A    between atoms: CAX_24  and  NBD_30 
REMARK    2  A    between atoms: CAY_25  and  CAZ_26 
ROOT
HETATM    1  CAE   D T 501      -9.858  28.976   6.385  1.00 28.11     0.002 A 
HETATM    2  CAF   D T 501      -8.343  27.264   5.622  1.00 31.06     0.002 A 
HETATM    3  CAG   D T 501      -9.444  29.800   5.325  1.00 28.67     0.017 A 
HETATM    4  CAH   D T 501      -7.907  28.096   4.581  1.00 30.46     0.017 A 
HETATM    5  CAK   D T 501      -9.499  25.453   7.617  1.00 23.78     0.102 A 
HETATM    6  CAL   D T 501     -11.269  25.796  11.795  1.00 24.69     0.124 A 
HETATM    7  CAM   D T 501     -10.228  27.435   8.734  1.00 24.63     0.104 A 
HETATM    8  NAS   D T 501      -9.845  24.722   8.697  1.00 20.85    -0.225 NA
HETATM    9  NAT   D T 501     -11.186  26.997  11.162  1.00 25.16    -0.162 NA
HETATM   10  CAV   D T 501      -9.325  27.692   6.520  1.00 25.80     0.003 A 
HETATM   11  CAW   D T 501      -9.707  26.851   7.597  1.00 25.02     0.038 A 
HETATM   12  CAX   D T 501      -8.450  29.378   4.447  1.00 27.25     0.056 A 
HETATM   13  CAZ   D T 501     -10.804  24.937  10.996  1.00 24.84     0.057 A 
HETATM   14  CBC   D T 501     -10.375  25.297   9.793  1.00 23.94     0.165 A 
HETATM   15  NBE   D T 501     -10.571  26.685   9.797  1.00 26.21    -0.211 N 
ENDROOT
BRANCH  13  16
HETATM   16  CAY   D T 501     -10.825  23.591  11.484  1.00 23.50     0.007 A 
HETATM   17  CAD   D T 501     -11.971  23.145  12.079  1.00 28.61     0.021 A 
HETATM   18  CAC   D T 501     -12.049  21.867  12.601  1.00 31.28     0.099 A 
HETATM   19  NAR   D T 501     -11.029  21.026  12.560  1.00 29.97    -0.244 NA
HETATM   20  CBA   D T 501      -9.875  21.381  11.993  1.00 29.39     0.081 A 
HETATM   21  CAI   D T 501      -8.796  20.481  11.954  1.00 24.64     0.019 A 
HETATM   22  CBB   D T 501      -9.716  22.701  11.444  1.00 25.45     0.018 A 
HETATM   23  CAA   D T 501      -7.604  20.862  11.398  1.00 25.05     0.002 A 
HETATM   24  CAB   D T 501      -7.437  22.117  10.866  1.00 24.88     0.000 A 
HETATM   25  CAJ   D T 501      -8.473  23.041  10.894  1.00 27.86     0.002 A 
ENDBRANCH  13  16
BRANCH  12  26
HETATM   26  NBD   D T 501      -7.997  30.275   3.345  1.00 33.43    -0.344 N 
HETATM   27  CAP   D T 501      -6.873  29.801   2.535  1.00 26.51     0.140 C 
HETATM   28  CAN   D T 501      -5.574  30.340   3.224  1.00 28.69     0.314 C 
HETATM   29  NAU   D T 501      -5.653  31.740   3.459  1.00 26.40     0.343 N 
HETATM   30  CAO   D T 501      -6.770  32.138   4.276  1.00 27.47     0.314 C 
HETATM   31  CAQ   D T 501      -8.080  31.697   3.599  1.00 29.57     0.140 C 
ENDBRANCH  12  26
TORSDOF 2
ENDMDL
MODEL 4
REMARK VINA RESULT:      -7.1      2.049      3.228
REMARK  2 active torsions:
REMARK  status: ('A' for Active; 'I' for Inactive)
REMARK    1  A    between atoms: CAX_24  and  NBD_30 
REMARK    2  A    between atoms: CAY_25  and  CAZ_26 
ROOT
HETATM    1  CAE   D T 501     -11.467  29.260  10.321  1.00 28.11     0.002 A 
HETATM    2  CAF   D T 501      -9.687  28.790   8.765  1.00 31.06     0.002 A 
HETATM    3  CAG   D T 501     -11.315  30.633  10.064  1.00 28.67     0.017 A 
HETATM    4  CAH   D T 501      -9.514  30.161   8.530  1.00 30.46     0.017 A 
HETATM    5  CAK   D T 501     -10.285  25.935   9.053  1.00 23.78     0.102 A 
HETATM    6  CAL   D T 501     -11.772  23.160  12.340  1.00 24.69     0.124 A 
HETATM    7  CAM   D T 501     -11.329  26.543  11.115  1.00 24.63     0.104 A 
HETATM    8  NAS   D T 501     -10.388  24.632   9.390  1.00 20.85    -0.225 NA
HETATM    9  NAT   D T 501     -11.991  24.473  12.625  1.00 25.16    -0.162 NA
HETATM   10  CAV   D T 501     -10.668  28.331   9.650  1.00 25.80     0.003 A 
HETATM   11  CAW   D T 501     -10.784  26.942   9.912  1.00 25.02     0.038 A 
HETATM   12  CAX   D T 501     -10.323  31.086   9.200  1.00 27.25     0.056 A 
HETATM   13  CAZ   D T 501     -11.198  23.128  11.216  1.00 24.84     0.057 A 
HETATM   14  CBC   D T 501     -10.945  24.251  10.556  1.00 23.94     0.165 A 
HETATM   15  NBE   D T 501     -11.427  25.238  11.427  1.00 26.21    -0.211 N 
ENDROOT
BRANCH  13  16
HETATM   16  CAY   D T 501     -10.899  21.814  10.733  1.00 23.50     0.007 A 
HETATM   17  CAD   D T 501     -11.532  21.391   9.599  1.00 28.61     0.021 A 
HETATM   18  CAC   D T 501     -11.314  20.122   9.096  1.00 31.28     0.099 A 
HETATM   19  NAR   D T 501     -10.501  19.260   9.685  1.00 29.97    -0.244 NA
HETATM   20  CBA   D T 501      -9.842  19.595  10.795  1.00 29.39     0.081 A 
HETATM   21  CAI   D T 501      -8.979  18.674  11.415  1.00 24.64     0.019 A 
HETATM   22  CBB   D T 501     -10.031  20.894  11.384  1.00 25.45     0.018 A 
HETATM   23  CAA   D T 501      -8.329  19.012  12.571  1.00 25.05     0.002 A 
HETATM   24  CAB   D T 501      -8.496  20.249  13.144  1.00 24.88     0.000 A 
HETATM   25  CAJ   D T 501      -9.346  21.185  12.571  1.00 27.86     0.002 A 
ENDBRANCH  13  16
BRANCH  12  26
HETATM   26  NBD   D T 501     -10.152  32.548   8.961  1.00 33.43    -0.344 N 
HETATM   27  CAP   D T 501      -8.964  32.953   8.205  1.00 26.51     0.140 C 
HETATM   28  CAN   D T 501      -7.836  33.207   9.260  1.00 28.69     0.314 C 
HETATM   29  NAU   D T 501      -8.274  34.084  10.289  1.00 26.40     0.343 N 
HETATM   30  CAO   D T 501      -9.434  33.620  11.005  1.00 27.47     0.314 C 
HETATM   31  CAQ   D T 501     -10.599  33.429  10.018  1.00 29.57     0.140 C 
ENDBRANCH  12  26
TORSDOF 2
ENDMDL
MODEL 5
REMARK VINA RESULT:      -7.0      1.553      2.080
REMARK  2 active torsions:
REMARK  status: ('A' for Active; 'I' for Inactive)
REMARK    1  A    between atoms: CAX_24  and  NBD_30 
REMARK    2  A    between atoms: CAY_25  and  CAZ_26 
ROOT
HETATM    1  CAE   D T 501     -10.024  30.523   9.186  1.00 28.11     0.002 A 
HETATM    2  CAF   D T 501     -11.904  30.123  10.639  1.00 31.06     0.002 A 
HETATM    3  CAG   D T 501     -10.196  31.906   9.362  1.00 28.67     0.017 A 
HETATM    4  CAH   D T 501     -12.095  31.503  10.792  1.00 30.46     0.017 A 
HETATM    5  CAK   D T 501     -11.282  27.260  10.538  1.00 23.78     0.102 A 
HETATM    6  CAL   D T 501      -9.569  24.330   7.505  1.00 24.69     0.124 A 
HETATM    7  CAM   D T 501     -10.101  27.768   8.524  1.00 24.63     0.104 A 
HETATM    8  NAS   D T 501     -11.153  25.942  10.275  1.00 20.85    -0.225 NA
HETATM    9  NAT   D T 501      -9.334  25.628   7.169  1.00 25.16    -0.162 NA
HETATM   10  CAV   D T 501     -10.865  29.625   9.847  1.00 25.80     0.003 A 
HETATM   11  CAW   D T 501     -10.728  28.225   9.665  1.00 25.02     0.038 A 
HETATM   12  CAX   D T 501     -11.245  32.397  10.132  1.00 27.25     0.056 A 
HETATM   13  CAZ   D T 501     -10.218  24.353   8.587  1.00 24.84     0.057 A 
HETATM   14  CBC   D T 501     -10.517  25.505   9.171  1.00 23.94     0.165 A 
HETATM   15  NBE   D T 501      -9.980  26.450   8.286  1.00 26.21    -0.211 N 
ENDROOT
BRANCH  13  16
HETATM   16  CAY   D T 501     -10.546  23.062   9.115  1.00 23.50     0.007 A 
HETATM   17  CAD   D T 501     -11.650  22.430   8.618  1.00 28.61     0.021 A 
HETATM   18  CAC   D T 501     -12.042  21.197   9.105  1.00 31.28     0.099 A 
HETATM   19  NAR   D T 501     -11.382  20.579  10.071  1.00 29.97    -0.244 NA
HETATM   20  CBA   D T 501     -10.291  21.126  10.609  1.00 29.39     0.081 A 
HETATM   21  CAI   D T 501      -9.595  20.463  11.635  1.00 24.64     0.019 A 
HETATM   22  CBB   D T 501      -9.834  22.415  10.162  1.00 25.45     0.018 A 
HETATM   23  CAA   D T 501      -8.494  21.044  12.204  1.00 25.05     0.002 A 
HETATM   24  CAB   D T 501      -8.042  22.272  11.787  1.00 24.88     0.000 A 
HETATM   25  CAJ   D T 501      -8.705  22.966  10.784  1.00 27.86     0.002 A 
ENDBRANCH  13  16
BRANCH  12  26
HETATM   26  NBD   D T 501     -11.435  33.868  10.285  1.00 33.43    -0.344 N 
HETATM   27  CAP   D T 501     -10.260  34.642  10.693  1.00 26.51     0.140 C 
HETATM   28  CAN   D T 501     -10.283  34.687  12.258  1.00 28.69     0.314 C 
HETATM   29  NAU   D T 501     -11.544  35.127  12.746  1.00 26.40     0.343 N 
HETATM   30  CAO   D T 501     -12.655  34.314  12.324  1.00 27.47     0.314 C 
HETATM   31  CAQ   D T 501     -12.722  34.301  10.787  1.00 29.57     0.140 C 
ENDBRANCH  12  26
TORSDOF 2
ENDMDL
MODEL 6
REMARK VINA RESULT:      -6.8      1.904     10.328
REMARK  2 active torsions:
REMARK  status: ('A' for Active; 'I' for Inactive)
REMARK    1  A    between atoms: CAX_24  and  NBD_30 
REMARK    2  A    between atoms: CAY_25  and  CAZ_26 
ROOT
HETATM    1  CAE   D T 501     -11.098  25.539   9.098  1.00 28.11     0.002 A 
HETATM    2  CAF   D T 501     -11.134  25.580  11.508  1.00 31.06     0.002 A 
HETATM    3  CAG   D T 501     -11.073  24.135   9.133  1.00 28.67     0.017 A 
HETATM    4  CAH   D T 501     -11.080  24.180  11.545  1.00 30.46     0.017 A 
HETATM    5  CAK   D T 501     -11.556  28.478  11.381  1.00 23.78     0.102 A 
HETATM    6  CAL   D T 501     -10.309  31.908   8.662  1.00 24.69     0.124 A 
HETATM    7  CAM   D T 501     -10.646  28.336   9.176  1.00 24.63     0.104 A 
HETATM    8  NAS   D T 501     -11.483  29.824  11.319  1.00 20.85    -0.225 NA
HETATM    9  NAT   D T 501     -10.126  30.689   8.084  1.00 25.16    -0.162 NA
HETATM   10  CAV   D T 501     -11.155  26.266  10.289  1.00 25.80     0.003 A 
HETATM   11  CAW   D T 501     -11.154  27.685  10.282  1.00 25.02     0.038 A 
HETATM   12  CAX   D T 501     -11.030  23.458  10.348  1.00 27.25     0.056 A 
HETATM   13  CAZ   D T 501     -10.776  31.691   9.814  1.00 24.84     0.057 A 
HETATM   14  CBC   D T 501     -11.008  30.452  10.226  1.00 23.94     0.165 A 
HETATM   15  NBE   D T 501     -10.588  29.679   9.135  1.00 26.21    -0.211 N 
ENDROOT
BRANCH  13  16
HETATM   16  CAY   D T 501     -11.054  32.870  10.578  1.00 23.50     0.007 A 
HETATM   17  CAD   D T 501     -10.003  33.511  11.170  1.00 28.61     0.021 A 
HETATM   18  CAC   D T 501     -10.204  34.636  11.948  1.00 31.28     0.099 A 
HETATM   19  NAR   D T 501     -11.410  35.137  12.164  1.00 29.97    -0.244 NA
HETATM   20  CBA   D T 501     -12.489  34.573  11.620  1.00 29.39     0.081 A 
HETATM   21  CAI   D T 501     -13.766  35.111  11.855  1.00 24.64     0.019 A 
HETATM   22  CBB   D T 501     -12.357  33.390  10.812  1.00 25.45     0.018 A 
HETATM   23  CAA   D T 501     -14.874  34.510  11.319  1.00 25.05     0.002 A 
HETATM   24  CAB   D T 501     -14.765  33.382  10.543  1.00 24.88     0.000 A 
HETATM   25  CAJ   D T 501     -13.523  32.812  10.294  1.00 27.86     0.002 A 
ENDBRANCH  13  16
BRANCH  12  26
HETATM   26  NBD   D T 501     -10.972  21.967  10.370  1.00 33.43    -0.344 N 
HETATM   27  CAP   D T 501     -11.587  21.305  11.523  1.00 26.51     0.140 C 
HETATM   28  CAN   D T 501     -10.460  21.156  12.599  1.00 28.69     0.314 C 
HETATM   29  NAU   D T 501      -9.296  20.548  12.053  1.00 26.40     0.343 N 
HETATM   30  CAO   D T 501      -8.731  21.257  10.935  1.00 27.47     0.314 C 
HETATM   31  CAQ   D T 501      -9.781  21.362   9.814  1.00 29.57     0.140 C 
ENDBRANCH  12  26
TORSDOF 2
ENDMDL
MODEL 7
REMARK VINA RESULT:      -6.8      2.145     10.084
REMARK  2 active torsions:
REMARK  status: ('A' for Active; 'I' for Inactive)
REMARK    1  A    between atoms: CAX_24  and  NBD_30 
REMARK    2  A    between atoms: CAY_25  and  CAZ_26 
ROOT
HETATM    1  CAE   D T 501     -11.254  25.394   8.897  1.00 28.11     0.002 A 
HETATM    2  CAF   D T 501      -9.780  25.758  10.769  1.00 31.06     0.002 A 
HETATM    3  CAG   D T 501     -10.739  24.094   8.758  1.00 28.67     0.017 A 
HETATM    4  CAH   D T 501      -9.245  24.473  10.613  1.00 30.46     0.017 A 
HETATM    5  CAK   D T 501     -11.137  28.313  11.248  1.00 23.78     0.102 A 
HETATM    6  CAL   D T 501     -13.133  31.545   8.741  1.00 24.69     0.124 A 
HETATM    7  CAM   D T 501     -11.836  28.167   8.968  1.00 24.63     0.104 A 
HETATM    8  NAS   D T 501     -11.581  29.586  11.298  1.00 20.85    -0.225 NA
HETATM    9  NAT   D T 501     -12.955  30.384   8.053  1.00 25.16    -0.162 NA
HETATM   10  CAV   D T 501     -10.792  26.222   9.922  1.00 25.80     0.003 A 
HETATM   11  CAW   D T 501     -11.277  27.548  10.067  1.00 25.02     0.038 A 
HETATM   12  CAX   D T 501      -9.717  23.646   9.588  1.00 27.25     0.056 A 
HETATM   13  CAZ   D T 501     -12.662  31.351   9.896  1.00 24.84     0.057 A 
HETATM   14  CBC   D T 501     -12.147  30.175  10.226  1.00 23.94     0.165 A 
HETATM   15  NBE   D T 501     -12.276  29.436   9.042  1.00 26.21    -0.211 N 
ENDROOT
BRANCH  13  16
HETATM   16  CAY   D T 501     -12.777  32.470  10.784  1.00 23.50     0.007 A 
HETATM   17  CAD   D T 501     -14.029  32.850  11.174  1.00 28.61     0.021 A 
HETATM   18  CAC   D T 501     -14.214  33.940  12.003  1.00 31.28     0.099 A 
HETATM   19  NAR   D T 501     -13.201  34.667  12.448  1.00 29.97    -0.244 NA
HETATM   20  CBA   D T 501     -11.946  34.361  12.116  1.00 29.39     0.081 A 
HETATM   21  CAI   D T 501     -10.876  35.138  12.593  1.00 24.64     0.019 A 
HETATM   22  CBB   D T 501     -11.680  33.249  11.244  1.00 25.45     0.018 A 
HETATM   23  CAA   D T 501      -9.592  34.837  12.225  1.00 25.05     0.002 A 
HETATM   24  CAB   D T 501      -9.320  33.777  11.395  1.00 24.88     0.000 A 
HETATM   25  CAJ   D T 501     -10.348  32.990  10.894  1.00 27.86     0.002 A 
ENDBRANCH  13  16
BRANCH  12  26
HETATM   26  NBD   D T 501      -9.157  22.274   9.409  1.00 33.43    -0.344 N 
HETATM   27  CAP   D T 501     -10.007  21.306   8.712  1.00 26.51     0.140 C 
HETATM   28  CAN   D T 501     -10.855  20.590   9.815  1.00 28.69     0.314 C 
HETATM   29  NAU   D T 501     -10.032  20.088  10.861  1.00 26.40     0.343 N 
HETATM   30  CAO   D T 501      -9.236  21.093  11.516  1.00 27.47     0.314 C 
HETATM   31  CAQ   D T 501      -8.324  21.776  10.482  1.00 29.57     0.140 C 
ENDBRANCH  12  26
TORSDOF 2
ENDMDL
MODEL 8
REMARK VINA RESULT:      -6.8      2.529     10.230
REMARK  2 active torsions:
REMARK  status: ('A' for Active; 'I' for Inactive)
REMARK    1  A    between atoms: CAX_24  and  NBD_30 
REMARK    2  A    between atoms: CAY_25  and  CAZ_26 
ROOT
HETATM    1  CAE   D T 501     -11.130  25.508  11.311  1.00 28.11     0.002 A 
HETATM    2  CAF   D T 501     -10.871  24.894   8.995  1.00 31.06     0.002 A 
HETATM    3  CAG   D T 501     -11.285  24.152  11.642  1.00 28.67     0.017 A 
HETATM    4  CAH   D T 501     -11.054  23.543   9.320  1.00 30.46     0.017 A 
HETATM    5  CAK   D T 501     -10.189  27.684   8.405  1.00 23.78     0.102 A 
HETATM    6  CAL   D T 501     -11.347  31.797   9.973  1.00 24.69     0.124 A 
HETATM    7  CAM   D T 501     -11.305  28.204  10.453  1.00 24.63     0.104 A 
HETATM    8  NAS   D T 501     -10.139  28.998   8.104  1.00 20.85    -0.225 NA
HETATM    9  NAT   D T 501     -11.697  30.794  10.825  1.00 25.16    -0.162 NA
HETATM   10  CAV   D T 501     -10.896  25.881   9.985  1.00 25.80     0.003 A 
HETATM   11  CAW   D T 501     -10.763  27.245   9.621  1.00 25.02     0.038 A 
HETATM   12  CAX   D T 501     -11.282  23.176  10.650  1.00 27.25     0.056 A 
HETATM   13  CAZ   D T 501     -10.800  31.245   8.977  1.00 24.84     0.057 A 
HETATM   14  CBC   D T 501     -10.650  29.929   8.934  1.00 23.94     0.165 A 
HETATM   15  NBE   D T 501     -11.239  29.509  10.134  1.00 26.21    -0.211 N 
ENDROOT
BRANCH  13  16
HETATM   16  CAY   D T 501     -10.342  32.152   7.968  1.00 23.50     0.007 A 
HETATM   17  CAD   D T 501     -11.203  32.467   6.954  1.00 28.61     0.021 A 
HETATM   18  CAC   D T 501     -10.815  33.311   5.930  1.00 31.28     0.099 A 
HETATM   19  NAR   D T 501      -9.604  33.842   5.875  1.00 29.97    -0.244 NA
HETATM   20  CBA   D T 501      -8.705  33.588   6.827  1.00 29.39     0.081 A 
HETATM   21  CAI   D T 501      -7.420  34.156   6.761  1.00 24.64     0.019 A 
HETATM   22  CBB   D T 501      -9.033  32.706   7.915  1.00 25.45     0.018 A 
HETATM   23  CAA   D T 501      -6.492  33.868   7.725  1.00 25.05     0.002 A 
HETATM   24  CAB   D T 501      -6.790  33.030   8.772  1.00 24.88     0.000 A 
HETATM   25  CAJ   D T 501      -8.043  32.440   8.870  1.00 27.86     0.002 A 
ENDBRANCH  13  16
BRANCH  12  26
HETATM   26  NBD   D T 501     -11.479  21.742  11.013  1.00 33.43    -0.344 N 
HETATM   27  CAP   D T 501     -11.674  21.447  12.434  1.00 26.51     0.140 C 
HETATM   28  CAN   D T 501     -10.250  21.184  13.029  1.00 28.69     0.314 C 
HETATM   29  NAU   D T 501      -9.536  20.222  12.264  1.00 26.40     0.343 N 
HETATM   30  CAO   D T 501      -9.363  20.581  10.880  1.00 27.47     0.314 C 
HETATM   31  CAQ   D T 501     -10.743  20.775  10.228  1.00 29.57     0.140 C 
ENDBRANCH  12  26
TORSDOF 2
ENDMDL
MODEL 9
REMARK VINA RESULT:      -6.7      1.769     10.287
REMARK  2 active torsions:
REMARK  status: ('A' for Active; 'I' for Inactive)
REMARK    1  A    between atoms: CAX_24  and  NBD_30 
REMARK    2  A    between atoms: CAY_25  and  CAZ_26 
ROOT
HETATM    1  CAE   D T 501     -11.374  24.564   9.581  1.00 28.11     0.002 A 
HETATM    2  CAF   D T 501      -9.187  25.443  10.081  1.00 31.06     0.002 A 
HETATM    3  CAG   D T 501     -10.882  23.262   9.768  1.00 28.67     0.017 A 
HETATM    4  CAH   D T 501      -8.687  24.144  10.239  1.00 30.46     0.017 A 
HETATM    5  CAK   D T 501     -10.340  28.139  10.044  1.00 23.78     0.102 A 
HETATM    6  CAL   D T 501     -13.653  30.311   7.804  1.00 24.69     0.124 A 
HETATM    7  CAM   D T 501     -12.103  27.174   8.751  1.00 24.63     0.104 A 
HETATM    8  NAS   D T 501     -10.816  29.370   9.765  1.00 20.85    -0.225 NA
HETATM    9  NAT   D T 501     -13.745  28.958   7.691  1.00 25.16    -0.162 NA
HETATM   10  CAV   D T 501     -10.531  25.662   9.763  1.00 25.80     0.003 A 
HETATM   11  CAW   D T 501     -10.997  26.986   9.555  1.00 25.02     0.038 A 
HETATM   12  CAX   D T 501      -9.539  23.048  10.062  1.00 27.25     0.056 A 
HETATM   13  CAZ   D T 501     -12.635  30.542   8.513  1.00 24.84     0.057 A 
HETATM   14  CBC   D T 501     -11.911  29.543   8.999  1.00 23.94     0.165 A 
HETATM   15  NBE   D T 501     -12.562  28.411   8.491  1.00 26.21    -0.211 N 
ENDROOT
BRANCH  13  16
HETATM   16  CAY   D T 501     -12.381  31.930   8.761  1.00 23.50     0.007 A 
HETATM   17  CAD   D T 501     -11.738  32.645   7.791  1.00 28.61     0.021 A 
HETATM   18  CAC   D T 501     -11.433  33.980   7.978  1.00 31.28     0.099 A 
HETATM   19  NAR   D T 501     -11.735  34.623   9.095  1.00 29.97    -0.244 NA
HETATM   20  CBA   D T 501     -12.366  33.998  10.090  1.00 29.39     0.081 A 
HETATM   21  CAI   D T 501     -12.684  34.687  11.273  1.00 24.64     0.019 A 
HETATM   22  CBB   D T 501     -12.701  32.604   9.972  1.00 25.45     0.018 A 
HETATM   23  CAA   D T 501     -13.304  34.034  12.304  1.00 25.05     0.002 A 
HETATM   24  CAB   D T 501     -13.634  32.704  12.206  1.00 24.88     0.000 A 
HETATM   25  CAJ   D T 501     -13.329  31.983  11.059  1.00 27.86     0.002 A 
ENDBRANCH  13  16
BRANCH  12  26
HETATM   26  NBD   D T 501      -9.022  21.658  10.227  1.00 33.43    -0.344 N 
HETATM   27  CAP   D T 501     -10.018  20.616  10.484  1.00 26.51     0.140 C 
HETATM   28  CAN   D T 501     -10.166  20.521  12.039  1.00 28.69     0.314 C 
HETATM   29  NAU   D T 501      -8.903  20.375  12.674  1.00 26.40     0.343 N 
HETATM   30  CAO   D T 501      -7.977  21.441  12.395  1.00 27.47     0.314 C 
HETATM   31  CAQ   D T 501      -7.737  21.524  10.878  1.00 29.57     0.140 C 
ENDBRANCH  12  26
TORSDOF 2
ENDMDL
