MODEL 1
REMARK VINA RESULT:    -7.477      0.000      0.000
REMARK INTER + INTRA:          -8.665
REMARK INTER:                  -8.352
REMARK INTRA:                  -0.314
REMARK UNBOUND:                -0.314
REMARK  2 active torsions:
REMARK  status: ('A' for Active; 'I' for Inactive)
REMARK    1  A    between atoms: CAX_24  and  NBD_30 
REMARK    2  A    between atoms: CAY_25  and  CAZ_26 
ROOT
HETATM    1  CAE   D T 501     -11.147  30.294   8.837  1.00 28.11     0.002 A 
HETATM    2  CAF   D T 501     -11.847  30.410  11.140  1.00 31.06     0.002 A 
HETATM    3  CAG   D T 501     -11.320  31.684   8.725  1.00 28.67     0.017 A 
HETATM    4  CAH   D T 501     -12.048  31.792  11.022  1.00 30.46     0.017 A 
HETATM    5  CAK   D T 501     -11.122  27.584  11.428  1.00 23.78     0.102 A 
HETATM    6  CAL   D T 501     -11.129  23.862   8.809  1.00 24.69     0.124 A 
HETATM    7  CAM   D T 501     -11.321  27.474   9.049  1.00 24.63     0.104 A 
HETATM    8  NAS   D T 501     -11.039  26.238  11.478  1.00 20.85    -0.225 NA
HETATM    9  NAT   D T 501     -11.246  25.010   8.087  1.00 25.16    -0.162 NA
HETATM   10  CAV   D T 501     -11.386  29.657  10.056  1.00 25.80     0.003 A 
HETATM   11  CAW   D T 501     -11.244  28.251  10.187  1.00 25.02     0.038 A 
HETATM   12  CAX   D T 501     -11.800  32.426   9.800  1.00 27.25     0.056 A 
HETATM   13  CAZ   D T 501     -11.062  24.207  10.021  1.00 24.84     0.057 A 
HETATM   14  CBC   D T 501     -11.091  25.489  10.360  1.00 23.94     0.165 A 
HETATM   15  NBE   D T 501     -11.231  26.134   9.123  1.00 26.21    -0.211 N 
ENDROOT
BRANCH  13  16
HETATM   16  CAY   D T 501     -10.916  23.122  10.945  1.00 23.50     0.007 A 
HETATM   17  CAD   D T 501     -11.987  22.803  11.730  1.00 28.61     0.021 A 
HETATM   18  CAC   D T 501     -11.905  21.789  12.665  1.00 31.28     0.099 A 
HETATM   19  NAR   D T 501     -10.796  21.090  12.851  1.00 29.97    -0.244 NA
HETATM   20  CBA   D T 501      -9.706  21.335  12.123  1.00 29.39     0.081 A 
HETATM   21  CAI   D T 501      -8.533  20.589  12.326  1.00 24.64     0.019 A 
HETATM   22  CBB   D T 501      -9.715  22.388  11.142  1.00 25.45     0.018 A 
HETATM   23  CAA   D T 501      -7.408  20.865  11.597  1.00 25.05     0.002 A 
HETATM   24  CAB   D T 501      -7.400  21.864  10.654  1.00 24.88     0.000 A 
HETATM   25  CAJ   D T 501      -8.534  22.633  10.429  1.00 27.86     0.002 A 
ENDBRANCH  13  16
BRANCH  12  26
HETATM   26  NBD   D T 501     -12.010  33.896   9.659  1.00 33.43    -0.344 N 
HETATM   27  CAP   D T 501     -11.269  34.563   8.585  1.00 26.51     0.140 C 
HETATM   28  CAN   D T 501      -9.911  35.028   9.209  1.00 28.69     0.314 C 
HETATM   29  NAU   D T 501     -10.115  35.768  10.406  1.00 26.40     0.343 N 
HETATM   30  CAO   D T 501     -10.832  35.050  11.426  1.00 27.47     0.314 C 
HETATM   31  CAQ   D T 501     -12.212  34.637  10.885  1.00 29.57     0.140 C 
ENDBRANCH  12  26
TORSDOF 2
ENDMDL
MODEL 2
REMARK VINA RESULT:    -7.476      1.708      2.796
REMARK INTER + INTRA:          -8.663
REMARK INTER:                  -8.205
REMARK INTRA:                  -0.459
REMARK UNBOUND:                -0.314
REMARK  2 active torsions:
REMARK  status: ('A' for Active; 'I' for Inactive)
REMARK    1  A    between atoms: CAX_24  and  NBD_30 
REMARK    2  A    between atoms: CAY_25  and  CAZ_26 
ROOT
HETATM    1  CAE   D T 501     -12.657  30.734   8.541  1.00 28.11     0.002 A 
HETATM    2  CAF   D T 501     -11.817  30.896  10.795  1.00 31.06     0.002 A 
HETATM    3  CAG   D T 501     -13.112  32.060   8.627  1.00 28.67     0.017 A 
HETATM    4  CAH   D T 501     -12.297  32.209  10.892  1.00 30.46     0.017 A 
HETATM    5  CAK   D T 501     -10.567  28.268  10.442  1.00 23.78     0.102 A 
HETATM    6  CAL   D T 501     -11.488  24.417   8.197  1.00 24.69     0.124 A 
HETATM    7  CAM   D T 501     -12.148  27.949   8.679  1.00 24.63     0.104 A 
HETATM    8  NAS   D T 501     -10.227  26.964  10.366  1.00 20.85    -0.225 NA
HETATM    9  NAT   D T 501     -12.226  25.471   7.753  1.00 25.16    -0.162 NA
HETATM   10  CAV   D T 501     -11.984  30.156   9.620  1.00 25.80     0.003 A 
HETATM   11  CAW   D T 501     -11.538  28.810   9.568  1.00 25.02     0.038 A 
HETATM   12  CAX   D T 501     -12.964  32.784   9.805  1.00 27.25     0.056 A 
HETATM   13  CAZ   D T 501     -10.761  24.858   9.130  1.00 24.84     0.057 A 
HETATM   14  CBC   D T 501     -10.811  26.136   9.478  1.00 23.94     0.165 A 
HETATM   15  NBE   D T 501     -11.789  26.654   8.618  1.00 26.21    -0.211 N 
ENDROOT
BRANCH  13  16
HETATM   16  CAY   D T 501      -9.889  23.886   9.718  1.00 23.50     0.007 A 
HETATM   17  CAD   D T 501      -8.648  23.725   9.169  1.00 28.61     0.021 A 
HETATM   18  CAC   D T 501      -7.768  22.783   9.667  1.00 31.28     0.099 A 
HETATM   19  NAR   D T 501      -8.081  21.992  10.681  1.00 29.97    -0.244 NA
HETATM   20  CBA   D T 501      -9.271  22.087  11.276  1.00 29.39     0.081 A 
HETATM   21  CAI   D T 501      -9.596  21.243  12.353  1.00 24.64     0.019 A 
HETATM   22  CBB   D T 501     -10.244  23.035  10.801  1.00 25.45     0.018 A 
HETATM   23  CAA   D T 501     -10.830  21.324  12.940  1.00 25.05     0.002 A 
HETATM   24  CAB   D T 501     -11.769  22.226  12.501  1.00 24.88     0.000 A 
HETATM   25  CAJ   D T 501     -11.493  23.070  11.434  1.00 27.86     0.002 A 
ENDBRANCH  13  16
BRANCH  12  26
HETATM   26  NBD   D T 501     -13.480  34.182   9.893  1.00 33.43    -0.344 N 
HETATM   27  CAP   D T 501     -13.190  34.910  11.130  1.00 26.51     0.140 C 
HETATM   28  CAN   D T 501     -14.388  34.630  12.098  1.00 28.69     0.314 C 
HETATM   29  NAU   D T 501     -15.636  34.897  11.472  1.00 26.40     0.343 N 
HETATM   30  CAO   D T 501     -15.867  34.136  10.272  1.00 27.47     0.314 C 
HETATM   31  CAQ   D T 501     -14.753  34.438   9.254  1.00 29.57     0.140 C 
ENDBRANCH  12  26
TORSDOF 2
ENDMDL
MODEL 3
REMARK VINA RESULT:    -7.474      0.821      1.560
REMARK INTER + INTRA:          -8.662
REMARK INTER:                  -8.332
REMARK INTRA:                  -0.329
REMARK UNBOUND:                -0.314
REMARK  2 active torsions:
REMARK  status: ('A' for Active; 'I' for Inactive)
REMARK    1  A    between atoms: CAX_24  and  NBD_30 
REMARK    2  A    between atoms: CAY_25  and  CAZ_26 
ROOT
HETATM    1  CAE   D T 501     -11.152  30.240   8.817  1.00 28.11     0.002 A 
HETATM    2  CAF   D T 501     -11.832  30.352  11.126  1.00 31.06     0.002 A 
HETATM    3  CAG   D T 501     -11.331  31.629   8.708  1.00 28.67     0.017 A 
HETATM    4  CAH   D T 501     -12.039  31.734  11.011  1.00 30.46     0.017 A 
HETATM    5  CAK   D T 501     -11.095  27.529  11.407  1.00 23.78     0.102 A 
HETATM    6  CAL   D T 501     -11.112  23.807   8.787  1.00 24.69     0.124 A 
HETATM    7  CAM   D T 501     -11.315  27.418   9.030  1.00 24.63     0.104 A 
HETATM    8  NAS   D T 501     -11.006  26.183  11.456  1.00 20.85    -0.225 NA
HETATM    9  NAT   D T 501     -11.239  24.955   8.066  1.00 25.16    -0.162 NA
HETATM   10  CAV   D T 501     -11.378  29.601  10.038  1.00 25.80     0.003 A 
HETATM   11  CAW   D T 501     -11.230  28.196  10.167  1.00 25.02     0.038 A 
HETATM   12  CAX   D T 501     -11.804  32.369   9.787  1.00 27.25     0.056 A 
HETATM   13  CAZ   D T 501     -11.036  24.152   9.999  1.00 24.84     0.057 A 
HETATM   14  CBC   D T 501     -11.066  25.434  10.338  1.00 23.94     0.165 A 
HETATM   15  NBE   D T 501     -11.219  26.079   9.103  1.00 26.21    -0.211 N 
ENDROOT
BRANCH  13  16
HETATM   16  CAY   D T 501     -10.878  23.068  10.921  1.00 23.50     0.007 A 
HETATM   17  CAD   D T 501     -11.941  22.744  11.715  1.00 28.61     0.021 A 
HETATM   18  CAC   D T 501     -11.847  21.730  12.649  1.00 31.28     0.099 A 
HETATM   19  NAR   D T 501     -10.734  21.035  12.826  1.00 29.97    -0.244 NA
HETATM   20  CBA   D T 501      -9.651  21.285  12.088  1.00 29.39     0.081 A 
HETATM   21  CAI   D T 501      -8.473  20.543  12.281  1.00 24.64     0.019 A 
HETATM   22  CBB   D T 501      -9.672  22.338  11.108  1.00 25.45     0.018 A 
HETATM   23  CAA   D T 501      -7.355  20.824  11.543  1.00 25.05     0.002 A 
HETATM   24  CAB   D T 501      -7.359  21.824  10.600  1.00 24.88     0.000 A 
HETATM   25  CAJ   D T 501      -8.498  22.588  10.385  1.00 27.86     0.002 A 
ENDBRANCH  13  16
BRANCH  12  26
HETATM   26  NBD   D T 501     -12.020  33.838   9.647  1.00 33.43    -0.344 N 
HETATM   27  CAP   D T 501     -12.596  34.528  10.804  1.00 26.51     0.140 C 
HETATM   28  CAN   D T 501     -14.149  34.493  10.609  1.00 28.69     0.314 C 
HETATM   29  NAU   D T 501     -14.522  34.971   9.322  1.00 26.40     0.343 N 
HETATM   30  CAO   D T 501     -13.936  34.240   8.230  1.00 27.47     0.314 C 
HETATM   31  CAQ   D T 501     -12.402  34.310   8.334  1.00 29.57     0.140 C 
ENDBRANCH  12  26
TORSDOF 2
ENDMDL
MODEL 4
REMARK VINA RESULT:    -7.442      5.612     12.246
REMARK INTER + INTRA:          -8.626
REMARK INTER:                  -8.174
REMARK INTRA:                  -0.452
REMARK UNBOUND:                -0.314
REMARK  2 active torsions:
REMARK  status: ('A' for Active; 'I' for Inactive)
REMARK    1  A    between atoms: CAX_24  and  NBD_30 
REMARK    2  A    between atoms: CAY_25  and  CAZ_26 
ROOT
HETATM    1  CAE   D T 501     -12.570  17.050   8.390  1.00 28.11     0.002 A 
HETATM    2  CAF   D T 501     -14.467  18.393   7.751  1.00 31.06     0.002 A 
HETATM    3  CAG   D T 501     -13.347  15.892   8.223  1.00 28.67     0.017 A 
HETATM    4  CAH   D T 501     -15.252  17.240   7.613  1.00 30.46     0.017 A 
HETATM    5  CAK   D T 501     -12.714  20.743   7.756  1.00 23.78     0.102 A 
HETATM    6  CAL   D T 501      -9.077  22.179  10.085  1.00 24.69     0.124 A 
HETATM    7  CAM   D T 501     -11.282  19.452   9.167  1.00 24.63     0.104 A 
HETATM    8  NAS   D T 501     -11.974  21.841   8.016  1.00 20.85    -0.225 NA
HETATM    9  NAT   D T 501      -9.311  20.848  10.247  1.00 25.16    -0.162 NA
HETATM   10  CAV   D T 501     -13.123  18.306   8.129  1.00 25.80     0.003 A 
HETATM   11  CAW   D T 501     -12.368  19.492   8.316  1.00 25.02     0.038 A 
HETATM   12  CAX   D T 501     -14.690  15.985   7.869  1.00 27.25     0.056 A 
HETATM   13  CAZ   D T 501      -9.983  22.610   9.318  1.00 24.84     0.057 A 
HETATM   14  CBC   D T 501     -10.901  21.788   8.830  1.00 23.94     0.165 A 
HETATM   15  NBE   D T 501     -10.556  20.558   9.408  1.00 26.21    -0.211 N 
ENDROOT
BRANCH  13  16
HETATM   16  CAY   D T 501      -9.893  24.006   9.011  1.00 23.50     0.007 A 
HETATM   17  CAD   D T 501      -9.267  24.366   7.851  1.00 28.61     0.021 A 
HETATM   18  CAC   D T 501      -9.117  25.697   7.509  1.00 31.28     0.099 A 
HETATM   19  NAR   D T 501      -9.557  26.677   8.282  1.00 29.97    -0.244 NA
HETATM   20  CBA   D T 501     -10.182  26.411   9.430  1.00 29.39     0.081 A 
HETATM   21  CAI   D T 501     -10.646  27.458  10.245  1.00 24.64     0.019 A 
HETATM   22  CBB   D T 501     -10.360  25.049   9.857  1.00 25.45     0.018 A 
HETATM   23  CAA   D T 501     -11.260  27.180  11.437  1.00 25.05     0.002 A 
HETATM   24  CAB   D T 501     -11.441  25.885  11.858  1.00 24.88     0.000 A 
HETATM   25  CAJ   D T 501     -10.988  24.822  11.088  1.00 27.86     0.002 A 
ENDBRANCH  13  16
BRANCH  12  26
HETATM   26  NBD   D T 501     -15.512  14.749   7.726  1.00 33.43    -0.344 N 
HETATM   27  CAP   D T 501     -16.963  14.933   7.647  1.00 26.51     0.140 C 
HETATM   28  CAN   D T 501     -17.496  14.865   9.117  1.00 28.69     0.314 C 
HETATM   29  NAU   D T 501     -17.031  13.700   9.786  1.00 26.40     0.343 N 
HETATM   30  CAO   D T 501     -15.597  13.588   9.844  1.00 27.47     0.314 C 
HETATM   31  CAQ   D T 501     -15.028  13.572   8.414  1.00 29.57     0.140 C 
ENDBRANCH  12  26
TORSDOF 2
ENDMDL
MODEL 5
REMARK VINA RESULT:    -7.080      5.304     11.897
REMARK INTER + INTRA:          -8.222
REMARK INTER:                  -7.714
REMARK INTRA:                  -0.508
REMARK UNBOUND:                -0.314
REMARK  2 active torsions:
REMARK  status: ('A' for Active; 'I' for Inactive)
REMARK    1  A    between atoms: CAX_24  and  NBD_30 
REMARK    2  A    between atoms: CAY_25  and  CAZ_26 
ROOT
HETATM    1  CAE   D T 501     -12.002  17.685   8.537  1.00 28.11     0.002 A 
HETATM    2  CAF   D T 501     -14.056  18.822   7.990  1.00 31.06     0.002 A 
HETATM    3  CAG   D T 501     -12.602  16.461   8.197  1.00 28.67     0.017 A 
HETATM    4  CAH   D T 501     -14.665  17.599   7.679  1.00 30.46     0.017 A 
HETATM    5  CAK   D T 501     -12.657  21.373   8.354  1.00 23.78     0.102 A 
HETATM    6  CAL   D T 501      -9.318  22.992  10.988  1.00 24.69     0.124 A 
HETATM    7  CAM   D T 501     -11.089  20.125   9.654  1.00 24.63     0.104 A 
HETATM    8  NAS   D T 501     -12.087  22.521   8.777  1.00 20.85    -0.225 NA
HETATM    9  NAT   D T 501      -9.362  21.632  10.977  1.00 25.16    -0.162 NA
HETATM   10  CAV   D T 501     -12.723  18.875   8.409  1.00 25.80     0.003 A 
HETATM   11  CAW   D T 501     -12.148  20.121   8.770  1.00 25.02     0.038 A 
HETATM   12  CAX   D T 501     -13.935  16.412   7.803  1.00 27.25     0.056 A 
HETATM   13  CAZ   D T 501     -10.257  23.387  10.243  1.00 24.84     0.057 A 
HETATM   14  CBC   D T 501     -11.037  22.514   9.621  1.00 23.94     0.165 A 
HETATM   15  NBE   D T 501     -10.533  21.281  10.058  1.00 26.21    -0.211 N 
ENDROOT
BRANCH  13  16
HETATM   16  CAY   D T 501     -10.360  24.810  10.113  1.00 23.50     0.007 A 
HETATM   17  CAD   D T 501     -10.971  25.501  11.121  1.00 28.61     0.021 A 
HETATM   18  CAC   D T 501     -11.132  26.872  11.046  1.00 31.28     0.099 A 
HETATM   19  NAR   D T 501     -10.718  27.574  10.003  1.00 29.97    -0.244 NA
HETATM   20  CBA   D T 501     -10.109  26.976   8.978  1.00 29.39     0.081 A 
HETATM   21  CAI   D T 501      -9.672  27.729   7.874  1.00 24.64     0.019 A 
HETATM   22  CBB   D T 501      -9.921  25.550   8.981  1.00 25.45     0.018 A 
HETATM   23  CAA   D T 501      -9.075  27.106   6.811  1.00 25.05     0.002 A 
HETATM   24  CAB   D T 501      -8.885  25.746   6.800  1.00 24.88     0.000 A 
HETATM   25  CAJ   D T 501      -9.310  24.963   7.865  1.00 27.86     0.002 A 
ENDBRANCH  13  16
BRANCH  12  26
HETATM   26  NBD   D T 501     -14.569  15.101   7.476  1.00 33.43    -0.344 N 
HETATM   27  CAP   D T 501     -15.982  15.135   7.092  1.00 26.51     0.140 C 
HETATM   28  CAN   D T 501     -16.802  14.964   8.415  1.00 28.69     0.314 C 
HETATM   29  NAU   D T 501     -16.363  13.832   9.156  1.00 26.40     0.343 N 
HETATM   30  CAO   D T 501     -14.970  13.869   9.516  1.00 27.47     0.314 C 
HETATM   31  CAQ   D T 501     -14.115  13.959   8.240  1.00 29.57     0.140 C 
ENDBRANCH  12  26
TORSDOF 2
ENDMDL
MODEL 6
REMARK VINA RESULT:    -7.012      4.822      6.359
REMARK INTER + INTRA:          -8.145
REMARK INTER:                  -7.631
REMARK INTRA:                  -0.514
REMARK UNBOUND:                -0.314
REMARK  2 active torsions:
REMARK  status: ('A' for Active; 'I' for Inactive)
REMARK    1  A    between atoms: CAX_24  and  NBD_30 
REMARK    2  A    between atoms: CAY_25  and  CAZ_26 
ROOT
HETATM    1  CAE   D T 501     -15.433  27.903   6.847  1.00 28.11     0.002 A 
HETATM    2  CAF   D T 501     -14.812  26.284   5.173  1.00 31.06     0.002 A 
HETATM    3  CAG   D T 501     -16.431  28.393   5.988  1.00 28.67     0.017 A 
HETATM    4  CAH   D T 501     -15.787  26.792   4.303  1.00 30.46     0.017 A 
HETATM    5  CAK   D T 501     -13.002  25.061   7.128  1.00 23.78     0.102 A 
HETATM    6  CAL   D T 501     -10.405  26.464  10.593  1.00 24.69     0.124 A 
HETATM    7  CAM   D T 501     -13.089  27.164   8.260  1.00 24.63     0.104 A 
HETATM    8  NAS   D T 501     -11.992  24.675   7.935  1.00 20.85    -0.225 NA
HETATM    9  NAT   D T 501     -11.324  27.395  10.217  1.00 25.16    -0.162 NA
HETATM   10  CAV   D T 501     -14.636  26.827   6.450  1.00 25.80     0.003 A 
HETATM   11  CAW   D T 501     -13.605  26.331   7.288  1.00 25.02     0.038 A 
HETATM   12  CAX   D T 501     -16.586  27.865   4.710  1.00 27.25     0.056 A 
HETATM   13  CAZ   D T 501     -10.566  25.473   9.827  1.00 24.84     0.057 A 
HETATM   14  CBC   D T 501     -11.511  25.486   8.897  1.00 23.94     0.165 A 
HETATM   15  NBE   D T 501     -12.085  26.756   9.055  1.00 26.21    -0.211 N 
ENDROOT
BRANCH  13  16
HETATM   16  CAY   D T 501      -9.690  24.370  10.084  1.00 23.50     0.007 A 
HETATM   17  CAD   D T 501      -8.516  24.311   9.389  1.00 28.61     0.021 A 
HETATM   18  CAC   D T 501      -7.639  23.257   9.565  1.00 31.28     0.099 A 
HETATM   19  NAR   D T 501      -7.894  22.259  10.397  1.00 29.97    -0.244 NA
HETATM   20  CBA   D T 501      -9.017  22.243  11.116  1.00 29.39     0.081 A 
HETATM   21  CAI   D T 501      -9.279  21.180  11.998  1.00 24.64     0.019 A 
HETATM   22  CBB   D T 501      -9.983  23.299  10.973  1.00 25.45     0.018 A 
HETATM   23  CAA   D T 501     -10.448  21.152  12.711  1.00 25.05     0.002 A 
HETATM   24  CAB   D T 501     -11.379  22.154  12.589  1.00 24.88     0.000 A 
HETATM   25  CAJ   D T 501     -11.164  23.217  11.722  1.00 27.86     0.002 A 
ENDBRANCH  13  16
BRANCH  12  26
HETATM   26  NBD   D T 501     -17.629  28.416   3.796  1.00 33.43    -0.344 N 
HETATM   27  CAP   D T 501     -17.529  28.037   2.385  1.00 26.51     0.140 C 
HETATM   28  CAN   D T 501     -16.645  29.131   1.696  1.00 28.69     0.314 C 
HETATM   29  NAU   D T 501     -17.124  30.439   1.979  1.00 26.40     0.343 N 
HETATM   30  CAO   D T 501     -17.181  30.755   3.382  1.00 27.47     0.314 C 
HETATM   31  CAQ   D T 501     -18.104  29.750   4.094  1.00 29.57     0.140 C 
ENDBRANCH  12  26
TORSDOF 2
ENDMDL
MODEL 7
REMARK VINA RESULT:    -6.921      1.942     10.299
REMARK INTER + INTRA:          -8.044
REMARK INTER:                  -7.507
REMARK INTRA:                  -0.536
REMARK UNBOUND:                -0.314
REMARK  2 active torsions:
REMARK  status: ('A' for Active; 'I' for Inactive)
REMARK    1  A    between atoms: CAX_24  and  NBD_30 
REMARK    2  A    between atoms: CAY_25  and  CAZ_26 
ROOT
HETATM    1  CAE   D T 501     -10.774  26.883   8.977  1.00 28.11     0.002 A 
HETATM    2  CAF   D T 501     -11.205  26.716  11.342  1.00 31.06     0.002 A 
HETATM    3  CAG   D T 501     -10.633  25.487   8.915  1.00 28.67     0.017 A 
HETATM    4  CAH   D T 501     -11.036  25.326  11.287  1.00 30.46     0.017 A 
HETATM    5  CAK   D T 501     -11.852  29.575  11.354  1.00 23.78     0.102 A 
HETATM    6  CAL   D T 501     -10.483  33.307   9.137  1.00 24.69     0.124 A 
HETATM    7  CAM   D T 501     -10.587  29.689   9.330  1.00 24.63     0.104 A 
HETATM    8  NAS   D T 501     -11.888  30.923  11.401  1.00 20.85    -0.225 NA
HETATM    9  NAT   D T 501     -10.103  32.159   8.513  1.00 25.16    -0.162 NA
HETATM   10  CAV   D T 501     -11.087  27.500  10.190  1.00 25.80     0.003 A 
HETATM   11  CAW   D T 501     -11.209  28.910  10.284  1.00 25.02     0.038 A 
HETATM   12  CAX   D T 501     -10.729  24.714  10.067  1.00 27.25     0.056 A 
HETATM   13  CAZ   D T 501     -11.111  32.959  10.176  1.00 24.84     0.057 A 
HETATM   14  CBC   D T 501     -11.298  31.676  10.452  1.00 23.94     0.165 A 
HETATM   15  NBE   D T 501     -10.640  31.031   9.395  1.00 26.21    -0.211 N 
ENDROOT
BRANCH  13  16
HETATM   16  CAY   D T 501     -11.612  34.045  10.964  1.00 23.50     0.007 A 
HETATM   17  CAD   D T 501     -12.805  34.602  10.600  1.00 28.61     0.021 A 
HETATM   18  CAC   D T 501     -13.330  35.673  11.298  1.00 31.28     0.099 A 
HETATM   19  NAR   D T 501     -12.708  36.212  12.334  1.00 29.97    -0.244 NA
HETATM   20  CBA   D T 501     -11.541  35.726  12.757  1.00 29.39     0.081 A 
HETATM   21  CAI   D T 501     -10.886  36.305  13.858  1.00 24.64     0.019 A 
HETATM   22  CBB   D T 501     -10.926  34.622  12.069  1.00 25.45     0.018 A 
HETATM   23  CAA   D T 501      -9.673  35.821  14.268  1.00 25.05     0.002 A 
HETATM   24  CAB   D T 501      -9.074  34.766  13.625  1.00 24.88     0.000 A 
HETATM   25  CAJ   D T 501      -9.681  34.171  12.526  1.00 27.86     0.002 A 
ENDBRANCH  13  16
BRANCH  12  26
HETATM   26  NBD   D T 501     -10.545  23.235   9.992  1.00 33.43    -0.344 N 
HETATM   27  CAP   D T 501     -10.265  22.545  11.254  1.00 26.51     0.140 C 
HETATM   28  CAN   D T 501      -8.707  22.521  11.406  1.00 28.69     0.314 C 
HETATM   29  NAU   D T 501      -8.079  22.007  10.239  1.00 26.40     0.343 N 
HETATM   30  CAO   D T 501      -8.381  22.740   9.037  1.00 27.47     0.314 C 
HETATM   31  CAQ   D T 501      -9.901  22.727   8.800  1.00 29.57     0.140 C 
ENDBRANCH  12  26
TORSDOF 2
ENDMDL
MODEL 8
REMARK VINA RESULT:    -6.877      2.053     10.065
REMARK INTER + INTRA:          -7.994
REMARK INTER:                  -7.515
REMARK INTRA:                  -0.480
REMARK UNBOUND:                -0.314
REMARK  2 active torsions:
REMARK  status: ('A' for Active; 'I' for Inactive)
REMARK    1  A    between atoms: CAX_24  and  NBD_30 
REMARK    2  A    between atoms: CAY_25  and  CAZ_26 
ROOT
HETATM    1  CAE   D T 501     -11.260  25.552   8.880  1.00 28.11     0.002 A 
HETATM    2  CAF   D T 501      -9.772  25.857  10.751  1.00 31.06     0.002 A 
HETATM    3  CAG   D T 501     -10.766  24.247   8.714  1.00 28.67     0.017 A 
HETATM    4  CAH   D T 501      -9.258  24.566  10.569  1.00 30.46     0.017 A 
HETATM    5  CAK   D T 501     -11.086  28.423  11.286  1.00 23.78     0.102 A 
HETATM    6  CAL   D T 501     -13.043  31.732   8.850  1.00 24.69     0.124 A 
HETATM    7  CAM   D T 501     -11.798  28.331   9.007  1.00 24.63     0.104 A 
HETATM    8  NAS   D T 501     -11.510  29.702  11.362  1.00 20.85    -0.225 NA
HETATM    9  NAT   D T 501     -12.886  30.582   8.139  1.00 25.16    -0.162 NA
HETATM   10  CAV   D T 501     -10.780  26.353   9.919  1.00 25.80     0.003 A 
HETATM   11  CAW   D T 501     -11.244  27.682  10.091  1.00 25.02     0.038 A 
HETATM   12  CAX   D T 501      -9.747  23.767   9.531  1.00 27.25     0.056 A 
HETATM   13  CAZ   D T 501     -12.570  31.510   9.999  1.00 24.84     0.057 A 
HETATM   14  CBC   D T 501     -12.072  30.320  10.305  1.00 23.94     0.165 A 
HETATM   15  NBE   D T 501     -12.218  29.605   9.107  1.00 26.21    -0.211 N 
ENDROOT
BRANCH  13  16
HETATM   16  CAY   D T 501     -12.663  32.613  10.908  1.00 23.50     0.007 A 
HETATM   17  CAD   D T 501     -13.897  32.937  11.396  1.00 28.61     0.021 A 
HETATM   18  CAC   D T 501     -14.063  34.009  12.252  1.00 31.28     0.099 A 
HETATM   19  NAR   D T 501     -13.050  34.773  12.630  1.00 29.97    -0.244 NA
HETATM   20  CBA   D T 501     -11.811  34.522  12.202  1.00 29.39     0.081 A 
HETATM   21  CAI   D T 501     -10.741  35.337  12.608  1.00 24.64     0.019 A 
HETATM   22  CBB   D T 501     -11.567  33.431  11.296  1.00 25.45     0.018 A 
HETATM   23  CAA   D T 501      -9.477  35.094  12.142  1.00 25.05     0.002 A 
HETATM   24  CAB   D T 501      -9.225  34.055  11.279  1.00 24.88     0.000 A 
HETATM   25  CAJ   D T 501     -10.256  33.232  10.845  1.00 27.86     0.002 A 
ENDBRANCH  13  16
BRANCH  12  26
HETATM   26  NBD   D T 501      -9.210  22.390   9.323  1.00 33.43    -0.344 N 
HETATM   27  CAP   D T 501     -10.142  21.398   8.784  1.00 26.51     0.140 C 
HETATM   28  CAN   D T 501     -10.826  20.719  10.019  1.00 28.69     0.314 C 
HETATM   29  NAU   D T 501      -9.863  20.255  10.956  1.00 26.40     0.343 N 
HETATM   30  CAO   D T 501      -8.989  21.282  11.460  1.00 27.47     0.314 C 
HETATM   31  CAQ   D T 501      -8.233  21.930  10.287  1.00 29.57     0.140 C 
ENDBRANCH  12  26
TORSDOF 2
ENDMDL
MODEL 9
REMARK VINA RESULT:    -6.874      4.466      5.308
REMARK INTER + INTRA:          -7.992
REMARK INTER:                  -7.522
REMARK INTRA:                  -0.470
REMARK UNBOUND:                -0.314
REMARK  2 active torsions:
REMARK  status: ('A' for Active; 'I' for Inactive)
REMARK    1  A    between atoms: CAX_24  and  NBD_30 
REMARK    2  A    between atoms: CAY_25  and  CAZ_26 
ROOT
HETATM    1  CAE   D T 501      -8.861  29.472   6.070  1.00 28.11     0.002 A 
HETATM    2  CAF   D T 501      -7.404  27.851   5.041  1.00 31.06     0.002 A 
HETATM    3  CAG   D T 501      -8.295  30.476   5.266  1.00 28.67     0.017 A 
HETATM    4  CAH   D T 501      -6.819  28.856   4.259  1.00 30.46     0.017 A 
HETATM    5  CAK   D T 501      -8.861  25.744   6.466  1.00 23.78     0.102 A 
HETATM    6  CAL   D T 501     -10.980  25.283  10.467  1.00 24.69     0.124 A 
HETATM    7  CAM   D T 501      -9.552  27.476   7.960  1.00 24.63     0.104 A 
HETATM    8  NAS   D T 501      -9.355  24.820   7.317  1.00 20.85    -0.225 NA
HETATM    9  NAT   D T 501     -10.756  26.585  10.141  1.00 25.16    -0.162 NA
HETATM   10  CAV   D T 501      -8.433  28.149   5.940  1.00 25.80     0.003 A 
HETATM   11  CAW   D T 501      -8.970  27.123   6.759  1.00 25.02     0.038 A 
HETATM   12  CAX   D T 501      -7.257  30.178   4.389  1.00 27.25     0.056 A 
HETATM   13  CAZ   D T 501     -10.504  24.591   9.525  1.00 24.84     0.057 A 
HETATM   14  CBC   D T 501      -9.943  25.176   8.476  1.00 23.94     0.165 A 
HETATM   15  NBE   D T 501     -10.042  26.538   8.790  1.00 26.21    -0.211 N 
ENDROOT
BRANCH  13  16
HETATM   16  CAY   D T 501     -10.663  23.176   9.683  1.00 23.50     0.007 A 
HETATM   17  CAD   D T 501     -11.762  22.590   9.121  1.00 28.61     0.021 A 
HETATM   18  CAC   D T 501     -11.994  21.235   9.261  1.00 31.28     0.099 A 
HETATM   19  NAR   D T 501     -11.179  20.448   9.946  1.00 29.97    -0.244 NA
HETATM   20  CBA   D T 501     -10.082  20.940  10.523  1.00 29.39     0.081 A 
HETATM   21  CAI   D T 501      -9.222  20.097  11.248  1.00 24.64     0.019 A 
HETATM   22  CBB   D T 501      -9.785  22.345  10.431  1.00 25.45     0.018 A 
HETATM   23  CAA   D T 501      -8.113  20.613  11.864  1.00 25.05     0.002 A 
HETATM   24  CAB   D T 501      -7.814  21.951  11.784  1.00 24.88     0.000 A 
HETATM   25  CAJ   D T 501      -8.642  22.821  11.086  1.00 27.86     0.002 A 
ENDBRANCH  13  16
BRANCH  12  26
HETATM   26  NBD   D T 501      -6.643  31.259   3.563  1.00 33.43    -0.344 N 
HETATM   27  CAP   D T 501      -5.493  30.880   2.739  1.00 26.51     0.140 C 
HETATM   28  CAN   D T 501      -4.222  31.119   3.620  1.00 28.69     0.314 C 
HETATM   29  NAU   D T 501      -4.212  32.428   4.176  1.00 26.40     0.343 N 
HETATM   30  CAO   D T 501      -5.361  32.731   4.989  1.00 27.47     0.314 C 
HETATM   31  CAQ   D T 501      -6.638  32.585   4.143  1.00 29.57     0.140 C 
ENDBRANCH  12  26
TORSDOF 2
ENDMDL
