MODEL 1
REMARK VINA RESULT:      -7.4      0.000      0.000
REMARK  11 active torsions:
REMARK  status: ('A' for Active; 'I' for Inactive)
REMARK    1  A    between atoms: NAP_5  and  CAO_6 
REMARK    2  A    between atoms: CAO_6  and  CAN_7 
REMARK    3  A    between atoms: CAN_7  and  OAM_8 
REMARK    4  A    between atoms: OAM_8  and  CAJ_9 
REMARK    5  A    between atoms: CAG_14  and  NAF_15 
REMARK    6  A    between atoms: NAF_15  and  C2_16 
REMARK    7  A    between atoms: C4_22  and  NAW_23 
REMARK    8  A    between atoms: NAW_23  and  CAX_24 
REMARK    9  A    between atoms: CBB_29  and  SBD_30 
REMARK   10  A    between atoms: SBD_30  and  NBE_33 
REMARK   11  A    between atoms: NBE_33  and  CBF_34 
ROOT
HETATM    1  C2    D T1201      37.190  -4.794   8.653  1.00 59.36     0.751 A 
HETATM    2  N3    D T1201      37.771  -5.105   7.504  1.00 55.19    -0.041 NA
HETATM    3  N1    D T1201      37.645  -5.231   9.822  1.00 67.11    -0.058 NA
HETATM    4  C6    D T1201      38.722  -6.002   9.880  1.00 64.11     0.117 A 
HETATM    5  C5    D T1201      39.368  -6.355   8.701  1.00 65.49     0.034 A 
HETATM    6  CAA   D T1201      40.609  -7.245   8.695  1.00 49.68     0.036 C 
HETATM    7  C4    D T1201      38.842  -5.877   7.498  1.00 58.40     0.178 A 
ENDROOT
BRANCH   1   8
HETATM    8  NAF   D T1201      36.019  -3.942   8.677  1.00 62.85    -0.059 NA
BRANCH   8   9
HETATM    9  CAG   D T1201      35.536  -3.108   9.774  1.00 53.07     0.100 A 
HETATM   10  CAL   D T1201      34.445  -3.619  10.443  1.00 60.66     0.022 A 
HETATM   11  CAK   D T1201      33.879  -2.925  11.502  1.00 75.71     0.026 A 
HETATM   12  CAJ   D T1201      34.407  -1.709  11.897  1.00 62.98     0.094 A 
HETATM   13  CAI   D T1201      35.515  -1.186  11.228  1.00 62.12     0.026 A 
HETATM   14  CAH   D T1201      36.083  -1.885  10.166  1.00 51.41     0.022 A 
BRANCH  12  15
HETATM   15  OAM   D T1201      33.801  -1.066  12.981  1.00 60.42    -0.329 OA
BRANCH  15  16
HETATM   16  CAN   D T1201      33.570   0.310  12.833  1.00 90.12     0.184 C 
BRANCH  16  17
HETATM   17  CAO   D T1201      32.173   0.477  12.210  1.00 96.40     0.283 C 
BRANCH  17  18
HETATM   18  NAP   D T1201      31.311  -0.233  12.669  1.00 98.57     0.140 N 
HETATM   19  CAQ   D T1201      30.585   0.400  13.508  1.00 96.89     0.250 C 
HETATM   20  CAR   D T1201      29.140  -0.329  13.466  1.00 91.95     0.037 C 
HETATM   21  CAS   D T1201      28.975  -0.701  12.270  1.00 99.10     0.037 C 
HETATM   22  CAT   D T1201      30.380  -0.857  11.646  1.00 98.40     0.250 C 
ENDBRANCH  17  18
ENDBRANCH  16  17
ENDBRANCH  15  16
ENDBRANCH  12  15
ENDBRANCH   8   9
ENDBRANCH   1   8
BRANCH   7  23
HETATM   23  NAW   D T1201      39.512  -6.249   6.266  1.00 64.56    -0.227 NA
BRANCH  23  24
HETATM   24  CAX   D T1201      38.843  -6.762   5.097  1.00 60.00     0.084 A 
HETATM   25  CBC   D T1201      38.085  -7.906   5.251  1.00 61.36     0.032 A 
HETATM   26  CBB   D T1201      37.422  -8.441   4.166  1.00 64.43     0.106 A 
HETATM   27  CBA   D T1201      37.527  -7.841   2.932  1.00 52.93     0.013 A 
HETATM   28  CAZ   D T1201      38.287  -6.688   2.771  1.00 65.17     0.002 A 
HETATM   29  CAY   D T1201      38.953  -6.142   3.860  1.00 59.73     0.019 A 
BRANCH  26  30
HETATM   30  SBD   D T1201      36.405  -9.942   4.374  1.00107.25     0.281 S 
HETATM   31  OBJ   D T1201      37.262 -11.089   4.073  1.00 84.83    -0.199 OA
HETATM   32  OBK   D T1201      36.138 -10.216   5.787  1.00 96.98    -0.199 OA
BRANCH  30  33
HETATM   33  NBE   D T1201      34.961  -9.947   3.391  1.00 87.06    -0.189 NA
BRANCH  33  34
HETATM   34  CBF   D T1201      33.670  -9.283   3.664  1.00 65.85     0.097 C 
HETATM   35  CBH   D T1201      32.831  -9.060   2.420  1.00 75.28     0.025 C 
HETATM   36  CBI   D T1201      33.903  -7.892   4.223  1.00 63.96     0.025 C 
HETATM   37  CBG   D T1201      32.843 -10.057   4.688  1.00 65.02     0.025 C 
ENDBRANCH  33  34
ENDBRANCH  30  33
ENDBRANCH  26  30
ENDBRANCH  23  24
ENDBRANCH   7  23
TORSDOF 11
ENDMDL
MODEL 2
REMARK VINA RESULT:      -7.4      5.253      7.210
REMARK  11 active torsions:
REMARK  status: ('A' for Active; 'I' for Inactive)
REMARK    1  A    between atoms: NAP_5  and  CAO_6 
REMARK    2  A    between atoms: CAO_6  and  CAN_7 
REMARK    3  A    between atoms: CAN_7  and  OAM_8 
REMARK    4  A    between atoms: OAM_8  and  CAJ_9 
REMARK    5  A    between atoms: CAG_14  and  NAF_15 
REMARK    6  A    between atoms: NAF_15  and  C2_16 
REMARK    7  A    between atoms: C4_22  and  NAW_23 
REMARK    8  A    between atoms: NAW_23  and  CAX_24 
REMARK    9  A    between atoms: CBB_29  and  SBD_30 
REMARK   10  A    between atoms: SBD_30  and  NBE_33 
REMARK   11  A    between atoms: NBE_33  and  CBF_34 
ROOT
HETATM    1  C2    D T1201      39.929   0.544  13.125  1.00 59.36     0.751 A 
HETATM    2  N3    D T1201      40.874   0.006  12.370  1.00 55.19    -0.041 NA
HETATM    3  N1    D T1201      39.955   1.820  13.495  1.00 67.11    -0.058 NA
HETATM    4  C6    D T1201      40.944   2.614  13.109  1.00 64.11     0.117 A 
HETATM    5  C5    D T1201      41.960   2.094  12.314  1.00 65.49     0.034 A 
HETATM    6  CAA   D T1201      43.132   2.950  11.839  1.00 49.68     0.036 C 
HETATM    7  C4    D T1201      41.889   0.744  11.961  1.00 58.40     0.178 A 
ENDROOT
BRANCH   1   8
HETATM    8  NAF   D T1201      38.805  -0.250  13.574  1.00 62.85    -0.059 NA
BRANCH   8   9
HETATM    9  CAG   D T1201      37.641  -0.678  12.804  1.00 53.07     0.100 A 
HETATM   10  CAL   D T1201      36.464  -0.719  13.522  1.00 60.66     0.022 A 
HETATM   11  CAK   D T1201      35.282  -1.115  12.916  1.00 75.71     0.026 A 
HETATM   12  CAJ   D T1201      35.273  -1.476  11.580  1.00 62.98     0.094 A 
HETATM   13  CAI   D T1201      36.459  -1.435  10.845  1.00 62.12     0.026 A 
HETATM   14  CAH   D T1201      37.645  -1.035  11.455  1.00 51.41     0.022 A 
BRANCH  12  15
HETATM   15  OAM   D T1201      34.047  -1.852  11.023  1.00 60.42    -0.329 OA
BRANCH  15  16
HETATM   16  CAN   D T1201      32.963  -1.936  11.911  1.00 90.12     0.184 C 
BRANCH  16  17
HETATM   17  CAO   D T1201      31.690  -1.596  11.117  1.00 96.40     0.283 C 
BRANCH  17  18
HETATM   18  NAP   D T1201      31.018  -0.700  11.569  1.00 98.57     0.140 N 
HETATM   19  CAQ   D T1201      29.932  -1.143  12.074  1.00 96.89     0.250 C 
HETATM   20  CAR   D T1201      29.527  -0.082  13.227  1.00 91.95     0.037 C 
HETATM   21  CAS   D T1201      30.616   0.330  13.716  1.00 99.10     0.037 C 
HETATM   22  CAT   D T1201      31.700   0.142  12.630  1.00 98.40     0.250 C 
ENDBRANCH  17  18
ENDBRANCH  16  17
ENDBRANCH  15  16
ENDBRANCH  12  15
ENDBRANCH   8   9
ENDBRANCH   1   8
BRANCH   7  23
HETATM   23  NAW   D T1201      42.951   0.200  11.136  1.00 64.56    -0.227 NA
BRANCH  23  24
HETATM   24  CAX   D T1201      42.798  -0.173   9.752  1.00 60.00     0.084 A 
HETATM   25  CBC   D T1201      42.608  -1.512   9.473  1.00 61.36     0.032 A 
HETATM   26  CBB   D T1201      42.454  -1.925   8.165  1.00 64.43     0.106 A 
HETATM   27  CBA   D T1201      42.502  -1.004   7.143  1.00 52.93     0.013 A 
HETATM   28  CAZ   D T1201      42.691   0.346   7.418  1.00 65.17     0.002 A 
HETATM   29  CAY   D T1201      42.841   0.768   8.732  1.00 59.73     0.019 A 
BRANCH  26  30
HETATM   30  SBD   D T1201      42.185  -3.692   7.798  1.00107.25     0.281 S 
HETATM   31  OBJ   D T1201      43.141  -4.067   6.756  1.00 84.83    -0.199 OA
HETATM   32  OBK   D T1201      42.676  -4.545   8.882  1.00 96.98    -0.199 OA
BRANCH  30  33
HETATM   33  NBE   D T1201      40.545  -4.063   7.325  1.00 87.06    -0.189 NA
BRANCH  33  34
HETATM   34  CBF   D T1201      39.518  -4.798   8.092  1.00 65.85     0.097 C 
HETATM   35  CBH   D T1201      39.980  -6.165   8.562  1.00 75.28     0.025 C 
HETATM   36  CBI   D T1201      38.312  -5.081   7.217  1.00 63.96     0.025 C 
HETATM   37  CBG   D T1201      39.034  -3.996   9.298  1.00 65.02     0.025 C 
ENDBRANCH  33  34
ENDBRANCH  30  33
ENDBRANCH  26  30
ENDBRANCH  23  24
ENDBRANCH   7  23
TORSDOF 11
ENDMDL
MODEL 3
REMARK VINA RESULT:      -7.3      5.654      7.842
REMARK  11 active torsions:
REMARK  status: ('A' for Active; 'I' for Inactive)
REMARK    1  A    between atoms: NAP_5  and  CAO_6 
REMARK    2  A    between atoms: CAO_6  and  CAN_7 
REMARK    3  A    between atoms: CAN_7  and  OAM_8 
REMARK    4  A    between atoms: OAM_8  and  CAJ_9 
REMARK    5  A    between atoms: CAG_14  and  NAF_15 
REMARK    6  A    between atoms: NAF_15  and  C2_16 
REMARK    7  A    between atoms: C4_22  and  NAW_23 
REMARK    8  A    between atoms: NAW_23  and  CAX_24 
REMARK    9  A    between atoms: CBB_29  and  SBD_30 
REMARK   10  A    between atoms: SBD_30  and  NBE_33 
REMARK   11  A    between atoms: NBE_33  and  CBF_34 
ROOT
HETATM    1  C2    D T1201      40.012   0.423  13.212  1.00 59.36     0.751 A 
HETATM    2  N3    D T1201      40.865   0.349  12.202  1.00 55.19    -0.041 NA
HETATM    3  N1    D T1201      39.984   1.456  14.046  1.00 67.11    -0.058 NA
HETATM    4  C6    D T1201      40.821   2.472  13.889  1.00 64.11     0.117 A 
HETATM    5  C5    D T1201      41.736   2.441  12.842  1.00 65.49     0.034 A 
HETATM    6  CAA   D T1201      42.733   3.574  12.607  1.00 49.68     0.036 C 
HETATM    7  C4    D T1201      41.730   1.326  12.000  1.00 58.40     0.178 A 
ENDROOT
BRANCH   1   8
HETATM    8  NAF   D T1201      39.053  -0.637  13.442  1.00 62.85    -0.059 NA
BRANCH   8   9
HETATM    9  CAG   D T1201      37.821  -0.911  12.708  1.00 53.07     0.100 A 
HETATM   10  CAL   D T1201      36.665  -0.624  13.402  1.00 60.66     0.022 A 
HETATM   11  CAK   D T1201      35.424  -0.843  12.826  1.00 75.71     0.026 A 
HETATM   12  CAJ   D T1201      35.333  -1.355  11.544  1.00 62.98     0.094 A 
HETATM   13  CAI   D T1201      36.498  -1.645  10.832  1.00 62.12     0.026 A 
HETATM   14  CAH   D T1201      37.745  -1.422  11.411  1.00 51.41     0.022 A 
BRANCH  12  15
HETATM   15  OAM   D T1201      34.053  -1.539  11.013  1.00 60.42    -0.329 OA
BRANCH  15  16
HETATM   16  CAN   D T1201      33.048  -1.888  11.928  1.00 90.12     0.184 C 
BRANCH  16  17
HETATM   17  CAO   D T1201      31.699  -1.768  11.198  1.00 96.40     0.283 C 
BRANCH  17  18
HETATM   18  NAP   D T1201      30.982  -0.872  11.573  1.00 98.57     0.140 N 
HETATM   19  CAQ   D T1201      29.838  -1.310  11.933  1.00 96.89     0.250 C 
HETATM   20  CAR   D T1201      29.299  -0.259  13.039  1.00 91.95     0.037 C 
HETATM   21  CAS   D T1201      30.322   0.139  13.665  1.00 99.10     0.037 C 
HETATM   22  CAT   D T1201      31.531  -0.047  12.721  1.00 98.40     0.250 C 
ENDBRANCH  17  18
ENDBRANCH  16  17
ENDBRANCH  15  16
ENDBRANCH  12  15
ENDBRANCH   8   9
ENDBRANCH   1   8
BRANCH   7  23
HETATM   23  NAW   D T1201      42.687   1.291  10.911  1.00 64.56    -0.227 NA
BRANCH  23  24
HETATM   24  CAX   D T1201      43.095   0.092  10.223  1.00 60.00     0.084 A 
HETATM   25  CBC   D T1201      42.623  -0.094   8.938  1.00 61.36     0.032 A 
HETATM   26  CBB   D T1201      42.983  -1.224   8.232  1.00 64.43     0.106 A 
HETATM   27  CBA   D T1201      43.801  -2.166   8.813  1.00 52.93     0.013 A 
HETATM   28  CAZ   D T1201      44.281  -1.984  10.105  1.00 65.17     0.002 A 
HETATM   29  CAY   D T1201      43.926  -0.846  10.818  1.00 59.73     0.019 A 
BRANCH  26  30
HETATM   30  SBD   D T1201      42.374  -1.461   6.528  1.00107.25     0.281 S 
HETATM   31  OBJ   D T1201      42.065  -0.135   5.992  1.00 84.83    -0.199 OA
HETATM   32  OBK   D T1201      43.459  -1.832   5.618  1.00 96.98    -0.199 OA
BRANCH  30  33
HETATM   33  NBE   D T1201      40.997  -2.530   6.423  1.00 87.06    -0.189 NA
BRANCH  33  34
HETATM   34  CBF   D T1201      40.870  -3.907   6.945  1.00 65.85     0.097 C 
HETATM   35  CBH   D T1201      39.731  -4.688   6.315  1.00 75.28     0.025 C 
HETATM   36  CBI   D T1201      40.541  -3.878   8.426  1.00 63.96     0.025 C 
HETATM   37  CBG   D T1201      42.166  -4.696   6.776  1.00 65.02     0.025 C 
ENDBRANCH  33  34
ENDBRANCH  30  33
ENDBRANCH  26  30
ENDBRANCH  23  24
ENDBRANCH   7  23
TORSDOF 11
ENDMDL
MODEL 4
REMARK VINA RESULT:      -7.3      1.778      2.300
REMARK  11 active torsions:
REMARK  status: ('A' for Active; 'I' for Inactive)
REMARK    1  A    between atoms: NAP_5  and  CAO_6 
REMARK    2  A    between atoms: CAO_6  and  CAN_7 
REMARK    3  A    between atoms: CAN_7  and  OAM_8 
REMARK    4  A    between atoms: OAM_8  and  CAJ_9 
REMARK    5  A    between atoms: CAG_14  and  NAF_15 
REMARK    6  A    between atoms: NAF_15  and  C2_16 
REMARK    7  A    between atoms: C4_22  and  NAW_23 
REMARK    8  A    between atoms: NAW_23  and  CAX_24 
REMARK    9  A    between atoms: CBB_29  and  SBD_30 
REMARK   10  A    between atoms: SBD_30  and  NBE_33 
REMARK   11  A    between atoms: NBE_33  and  CBF_34 
ROOT
HETATM    1  C2    D T1201      38.123  -4.787   8.770  1.00 59.36     0.751 A 
HETATM    2  N3    D T1201      37.689  -5.412   7.686  1.00 55.19    -0.041 NA
HETATM    3  N1    D T1201      39.300  -4.173   8.814  1.00 67.11    -0.058 NA
HETATM    4  C6    D T1201      40.093  -4.158   7.752  1.00 64.11     0.117 A 
HETATM    5  C5    D T1201      39.680  -4.801   6.589  1.00 65.49     0.034 A 
HETATM    6  CAA   D T1201      40.547  -4.829   5.332  1.00 49.68     0.036 C 
HETATM    7  C4    D T1201      38.439  -5.440   6.600  1.00 58.40     0.178 A 
ENDROOT
BRANCH   1   8
HETATM    8  NAF   D T1201      37.310  -4.741   9.967  1.00 62.85    -0.059 NA
BRANCH   8   9
HETATM    9  CAG   D T1201      36.555  -3.610  10.499  1.00 53.07     0.100 A 
HETATM   10  CAL   D T1201      35.696  -3.929  11.529  1.00 60.66     0.022 A 
HETATM   11  CAK   D T1201      34.912  -2.952  12.122  1.00 75.71     0.026 A 
HETATM   12  CAJ   D T1201      34.985  -1.642  11.683  1.00 62.98     0.094 A 
HETATM   13  CAI   D T1201      35.854  -1.309  10.643  1.00 62.12     0.026 A 
HETATM   14  CAH   D T1201      36.643  -2.291  10.049  1.00 51.41     0.022 A 
BRANCH  12  15
HETATM   15  OAM   D T1201      34.180  -0.700  12.332  1.00 60.42    -0.329 OA
BRANCH  15  16
HETATM   16  CAN   D T1201      32.795  -0.841  12.153  1.00 90.12     0.184 C 
BRANCH  16  17
HETATM   17  CAO   D T1201      32.121   0.375  12.811  1.00 96.40     0.283 C 
BRANCH  17  18
HETATM   18  NAP   D T1201      30.959   0.544  12.525  1.00 98.57     0.140 N 
HETATM   19  CAQ   D T1201      30.660  -0.041  11.430  1.00 96.89     0.250 C 
HETATM   20  CAR   D T1201      29.082  -0.382  11.539  1.00 91.95     0.037 C 
HETATM   21  CAS   D T1201      28.867  -0.639  12.757  1.00 99.10     0.037 C 
HETATM   22  CAT   D T1201      29.966   0.079  13.572  1.00 98.40     0.250 C 
ENDBRANCH  17  18
ENDBRANCH  16  17
ENDBRANCH  15  16
ENDBRANCH  12  15
ENDBRANCH   8   9
ENDBRANCH   1   8
BRANCH   7  23
HETATM   23  NAW   D T1201      38.010  -6.115   5.389  1.00 64.56    -0.227 NA
BRANCH  23  24
HETATM   24  CAX   D T1201      37.673  -7.515   5.312  1.00 60.00     0.084 A 
HETATM   25  CBC   D T1201      36.365  -7.835   5.004  1.00 61.36     0.032 A 
HETATM   26  CBB   D T1201      35.986  -9.159   4.915  1.00 64.43     0.106 A 
HETATM   27  CBA   D T1201      36.908 -10.155   5.144  1.00 52.93     0.013 A 
HETATM   28  CAZ   D T1201      38.226  -9.838   5.453  1.00 65.17     0.002 A 
HETATM   29  CAY   D T1201      38.615  -8.508   5.538  1.00 59.73     0.019 A 
BRANCH  26  30
HETATM   30  SBD   D T1201      34.262  -9.583   4.491  1.00107.25     0.281 S 
HETATM   31  OBJ   D T1201      33.803 -10.561   5.477  1.00 84.83    -0.199 OA
HETATM   32  OBK   D T1201      33.347  -8.485   4.809  1.00 96.98    -0.199 OA
BRANCH  30  33
HETATM   33  NBE   D T1201      34.073 -10.180   2.861  1.00 87.06    -0.189 NA
BRANCH  33  34
HETATM   34  CBF   D T1201      34.699  -9.668   1.624  1.00 65.85     0.097 C 
HETATM   35  CBH   D T1201      34.019 -10.155   0.358  1.00 75.28     0.025 C 
HETATM   36  CBI   D T1201      36.125 -10.172   1.510  1.00 63.96     0.025 C 
HETATM   37  CBG   D T1201      34.747  -8.142   1.606  1.00 65.02     0.025 C 
ENDBRANCH  33  34
ENDBRANCH  30  33
ENDBRANCH  26  30
ENDBRANCH  23  24
ENDBRANCH   7  23
TORSDOF 11
ENDMDL
MODEL 5
REMARK VINA RESULT:      -7.3      3.982      5.850
REMARK  11 active torsions:
REMARK  status: ('A' for Active; 'I' for Inactive)
REMARK    1  A    between atoms: NAP_5  and  CAO_6 
REMARK    2  A    between atoms: CAO_6  and  CAN_7 
REMARK    3  A    between atoms: CAN_7  and  OAM_8 
REMARK    4  A    between atoms: OAM_8  and  CAJ_9 
REMARK    5  A    between atoms: CAG_14  and  NAF_15 
REMARK    6  A    between atoms: NAF_15  and  C2_16 
REMARK    7  A    between atoms: C4_22  and  NAW_23 
REMARK    8  A    between atoms: NAW_23  and  CAX_24 
REMARK    9  A    between atoms: CBB_29  and  SBD_30 
REMARK   10  A    between atoms: SBD_30  and  NBE_33 
REMARK   11  A    between atoms: NBE_33  and  CBF_34 
ROOT
HETATM    1  C2    D T1201      37.270  -4.680   8.665  1.00 59.36     0.751 A 
HETATM    2  N3    D T1201      37.829  -5.048   7.522  1.00 55.19    -0.041 NA
HETATM    3  N1    D T1201      37.723  -5.093   9.843  1.00 67.11    -0.058 NA
HETATM    4  C6    D T1201      38.773  -5.898   9.917  1.00 64.11     0.117 A 
HETATM    5  C5    D T1201      39.394  -6.313   8.744  1.00 65.49     0.034 A 
HETATM    6  CAA   D T1201      40.603  -7.246   8.756  1.00 49.68     0.036 C 
HETATM    7  C4    D T1201      38.872  -5.857   7.531  1.00 58.40     0.178 A 
ENDROOT
BRANCH   1   8
HETATM    8  NAF   D T1201      36.131  -3.787   8.672  1.00 62.85    -0.059 NA
BRANCH   8   9
HETATM    9  CAG   D T1201      35.608  -3.003   9.788  1.00 53.07     0.100 A 
HETATM   10  CAL   D T1201      34.547  -3.585  10.447  1.00 60.66     0.022 A 
HETATM   11  CAK   D T1201      33.948  -2.945  11.522  1.00 75.71     0.026 A 
HETATM   12  CAJ   D T1201      34.414  -1.713  11.944  1.00 62.98     0.094 A 
HETATM   13  CAI   D T1201      35.491  -1.118  11.284  1.00 62.12     0.026 A 
HETATM   14  CAH   D T1201      36.092  -1.762  10.206  1.00 51.41     0.022 A 
BRANCH  12  15
HETATM   15  OAM   D T1201      33.779  -1.126  13.043  1.00 60.42    -0.329 OA
BRANCH  15  16
HETATM   16  CAN   D T1201      33.612   0.266  12.990  1.00 90.12     0.184 C 
BRANCH  16  17
HETATM   17  CAO   D T1201      32.213   0.539  12.411  1.00 96.40     0.283 C 
BRANCH  17  18
HETATM   18  NAP   D T1201      31.334  -0.189  12.807  1.00 98.57     0.140 N 
HETATM   19  CAQ   D T1201      30.542   0.426  13.598  1.00 96.89     0.250 C 
HETATM   20  CAR   D T1201      29.117  -0.328  13.456  1.00 91.95     0.037 C 
HETATM   21  CAS   D T1201      29.040  -0.696  12.250  1.00 99.10     0.037 C 
HETATM   22  CAT   D T1201      30.487  -0.823  11.721  1.00 98.40     0.250 C 
ENDBRANCH  17  18
ENDBRANCH  16  17
ENDBRANCH  15  16
ENDBRANCH  12  15
ENDBRANCH   8   9
ENDBRANCH   1   8
BRANCH   7  23
HETATM   23  NAW   D T1201      39.516  -6.293   6.307  1.00 64.56    -0.227 NA
BRANCH  23  24
HETATM   24  CAX   D T1201      39.940  -5.408   5.250  1.00 60.00     0.084 A 
HETATM   25  CBC   D T1201      41.147  -4.757   5.415  1.00 61.36     0.032 A 
HETATM   26  CBB   D T1201      41.603  -3.900   4.434  1.00 64.43     0.106 A 
HETATM   27  CBA   D T1201      40.851  -3.688   3.302  1.00 52.93     0.013 A 
HETATM   28  CAZ   D T1201      39.636  -4.342   3.129  1.00 65.17     0.002 A 
HETATM   29  CAY   D T1201      39.174  -5.210   4.110  1.00 59.73     0.019 A 
BRANCH  26  30
HETATM   30  SBD   D T1201      43.207  -3.054   4.644  1.00107.25     0.281 S 
HETATM   31  OBJ   D T1201      44.228  -4.092   4.785  1.00 84.83    -0.199 OA
HETATM   32  OBK   D T1201      43.661  -2.450   3.390  1.00 96.98    -0.199 OA
BRANCH  30  33
HETATM   33  NBE   D T1201      43.236  -1.941   5.989  1.00 87.06    -0.189 NA
BRANCH  33  34
HETATM   34  CBF   D T1201      42.831  -0.520   6.006  1.00 65.85     0.097 C 
HETATM   35  CBH   D T1201      42.617   0.030   7.405  1.00 75.28     0.025 C 
HETATM   36  CBI   D T1201      41.489  -0.349   5.319  1.00 63.96     0.025 C 
HETATM   37  CBG   D T1201      43.838   0.363   5.275  1.00 65.02     0.025 C 
ENDBRANCH  33  34
ENDBRANCH  30  33
ENDBRANCH  26  30
ENDBRANCH  23  24
ENDBRANCH   7  23
TORSDOF 11
ENDMDL
MODEL 6
REMARK VINA RESULT:      -7.1      4.829      8.155
REMARK  11 active torsions:
REMARK  status: ('A' for Active; 'I' for Inactive)
REMARK    1  A    between atoms: NAP_5  and  CAO_6 
REMARK    2  A    between atoms: CAO_6  and  CAN_7 
REMARK    3  A    between atoms: CAN_7  and  OAM_8 
REMARK    4  A    between atoms: OAM_8  and  CAJ_9 
REMARK    5  A    between atoms: CAG_14  and  NAF_15 
REMARK    6  A    between atoms: NAF_15  and  C2_16 
REMARK    7  A    between atoms: C4_22  and  NAW_23 
REMARK    8  A    between atoms: NAW_23  and  CAX_24 
REMARK    9  A    between atoms: CBB_29  and  SBD_30 
REMARK   10  A    between atoms: SBD_30  and  NBE_33 
REMARK   11  A    between atoms: NBE_33  and  CBF_34 
ROOT
HETATM    1  C2    D T1201      38.519  -4.515   9.018  1.00 59.36     0.751 A 
HETATM    2  N3    D T1201      39.763  -4.099   8.837  1.00 55.19    -0.041 NA
HETATM    3  N1    D T1201      37.790  -5.029   8.033  1.00 67.11    -0.058 NA
HETATM    4  C6    D T1201      38.295  -5.152   6.814  1.00 64.11     0.117 A 
HETATM    5  C5    D T1201      39.599  -4.730   6.574  1.00 65.49     0.034 A 
HETATM    6  CAA   D T1201      40.241  -4.836   5.192  1.00 49.68     0.036 C 
HETATM    7  C4    D T1201      40.318  -4.187   7.642  1.00 58.40     0.178 A 
ENDROOT
BRANCH   1   8
HETATM    8  NAF   D T1201      37.899  -4.432  10.324  1.00 62.85    -0.059 NA
BRANCH   8   9
HETATM    9  CAG   D T1201      36.766  -3.606  10.731  1.00 53.07     0.100 A 
HETATM   10  CAL   D T1201      35.693  -4.314  11.229  1.00 60.66     0.022 A 
HETATM   11  CAK   D T1201      34.546  -3.655  11.646  1.00 75.71     0.026 A 
HETATM   12  CAJ   D T1201      34.469  -2.276  11.565  1.00 62.98     0.094 A 
HETATM   13  CAI   D T1201      35.552  -1.551  11.065  1.00 62.12     0.026 A 
HETATM   14  CAH   D T1201      36.704  -2.214  10.648  1.00 51.41     0.022 A 
BRANCH  12  15
HETATM   15  OAM   D T1201      33.292  -1.669  12.016  1.00 60.42    -0.329 OA
BRANCH  15  16
HETATM   16  CAN   D T1201      33.411  -0.343  12.461  1.00 90.12     0.184 C 
BRANCH  16  17
HETATM   17  CAO   D T1201      32.016   0.299  12.369  1.00 96.40     0.283 C 
BRANCH  17  18
HETATM   18  NAP   D T1201      31.099  -0.395  12.738  1.00 98.57     0.140 N 
HETATM   19  CAQ   D T1201      30.393   0.197  13.622  1.00 96.89     0.250 C 
HETATM   20  CAR   D T1201      28.907  -0.428  13.479  1.00 91.95     0.037 C 
HETATM   21  CAS   D T1201      28.749  -0.668  12.249  1.00 99.10     0.037 C 
HETATM   22  CAT   D T1201      30.158  -0.852  11.639  1.00 98.40     0.250 C 
ENDBRANCH  17  18
ENDBRANCH  16  17
ENDBRANCH  15  16
ENDBRANCH  12  15
ENDBRANCH   8   9
ENDBRANCH   1   8
BRANCH   7  23
HETATM   23  NAW   D T1201      41.675  -3.742   7.392  1.00 64.56    -0.227 NA
BRANCH  23  24
HETATM   24  CAX   D T1201      42.549  -3.185   8.395  1.00 60.00     0.084 A 
HETATM   25  CBC   D T1201      42.316  -1.881   8.785  1.00 61.36     0.032 A 
HETATM   26  CBB   D T1201      43.120  -1.298   9.743  1.00 64.43     0.106 A 
HETATM   27  CBA   D T1201      44.157  -2.012  10.297  1.00 52.93     0.013 A 
HETATM   28  CAZ   D T1201      44.396  -3.326   9.910  1.00 65.17     0.002 A 
HETATM   29  CAY   D T1201      43.586  -3.920   8.950  1.00 59.73     0.019 A 
BRANCH  26  30
HETATM   30  SBD   D T1201      42.801   0.420  10.272  1.00107.25     0.281 S 
HETATM   31  OBJ   D T1201      44.037   0.923  10.871  1.00 84.83    -0.199 OA
HETATM   32  OBK   D T1201      42.713   1.325   9.125  1.00 96.98    -0.199 OA
BRANCH  30  33
HETATM   33  NBE   D T1201      41.450   0.571  11.369  1.00 87.06    -0.189 NA
BRANCH  33  34
HETATM   34  CBF   D T1201      41.448   1.111  12.744  1.00 65.85     0.097 C 
HETATM   35  CBH   D T1201      40.072   1.122  13.385  1.00 75.28     0.025 C 
HETATM   36  CBI   D T1201      41.879   2.565  12.737  1.00 63.96     0.025 C 
HETATM   37  CBG   D T1201      42.412   0.350  13.651  1.00 65.02     0.025 C 
ENDBRANCH  33  34
ENDBRANCH  30  33
ENDBRANCH  26  30
ENDBRANCH  23  24
ENDBRANCH   7  23
TORSDOF 11
ENDMDL
MODEL 7
REMARK VINA RESULT:      -7.1      4.536     11.351
REMARK  11 active torsions:
REMARK  status: ('A' for Active; 'I' for Inactive)
REMARK    1  A    between atoms: NAP_5  and  CAO_6 
REMARK    2  A    between atoms: CAO_6  and  CAN_7 
REMARK    3  A    between atoms: CAN_7  and  OAM_8 
REMARK    4  A    between atoms: OAM_8  and  CAJ_9 
REMARK    5  A    between atoms: CAG_14  and  NAF_15 
REMARK    6  A    between atoms: NAF_15  and  C2_16 
REMARK    7  A    between atoms: C4_22  and  NAW_23 
REMARK    8  A    between atoms: NAW_23  and  CAX_24 
REMARK    9  A    between atoms: CBB_29  and  SBD_30 
REMARK   10  A    between atoms: SBD_30  and  NBE_33 
REMARK   11  A    between atoms: NBE_33  and  CBF_34 
ROOT
HETATM    1  C2    D T1201      34.114  -3.861   9.371  1.00 59.36     0.751 A 
HETATM    2  N3    D T1201      33.233  -2.883   9.513  1.00 55.19    -0.041 NA
HETATM    3  N1    D T1201      33.901  -5.084   9.845  1.00 67.11    -0.058 NA
HETATM    4  C6    D T1201      32.776  -5.374  10.483  1.00 64.11     0.117 A 
HETATM    5  C5    D T1201      31.820  -4.379  10.656  1.00 65.49     0.034 A 
HETATM    6  CAA   D T1201      30.504  -4.642  11.387  1.00 49.68     0.036 C 
HETATM    7  C4    D T1201      32.097  -3.108  10.148  1.00 58.40     0.178 A 
ENDROOT
BRANCH   1   8
HETATM    8  NAF   D T1201      35.360  -3.632   8.672  1.00 62.85    -0.059 NA
BRANCH   8   9
HETATM    9  CAG   D T1201      36.638  -4.313   8.863  1.00 53.07     0.100 A 
HETATM   10  CAL   D T1201      37.194  -4.820   7.708  1.00 60.66     0.022 A 
HETATM   11  CAK   D T1201      38.402  -5.498   7.745  1.00 75.71     0.026 A 
HETATM   12  CAJ   D T1201      39.064  -5.673   8.947  1.00 62.98     0.094 A 
HETATM   13  CAI   D T1201      38.510  -5.160  10.122  1.00 62.12     0.026 A 
HETATM   14  CAH   D T1201      37.297  -4.477  10.082  1.00 51.41     0.022 A 
BRANCH  12  15
HETATM   15  OAM   D T1201      40.286  -6.351   8.918  1.00 60.42    -0.329 OA
BRANCH  15  16
HETATM   16  CAN   D T1201      40.239  -7.693   8.508  1.00 90.12     0.184 C 
BRANCH  16  17
HETATM   17  CAO   D T1201      41.682  -8.226   8.515  1.00 96.40     0.283 C 
BRANCH  17  18
HETATM   18  NAP   D T1201      42.426  -7.703   9.310  1.00 98.57     0.140 N 
HETATM   19  CAQ   D T1201      42.736  -8.505  10.255  1.00 96.89     0.250 C 
HETATM   20  CAR   D T1201      44.193  -8.025  10.769  1.00 91.95     0.037 C 
HETATM   21  CAS   D T1201      44.800  -7.603   9.745  1.00 99.10     0.037 C 
HETATM   22  CAT   D T1201      43.721  -7.173   8.725  1.00 98.40     0.250 C 
ENDBRANCH  17  18
ENDBRANCH  16  17
ENDBRANCH  15  16
ENDBRANCH  12  15
ENDBRANCH   8   9
ENDBRANCH   1   8
BRANCH   7  23
HETATM   23  NAW   D T1201      31.102  -2.069  10.332  1.00 64.56    -0.227 NA
BRANCH  23  24
HETATM   24  CAX   D T1201      31.104  -1.122  11.420  1.00 60.00     0.084 A 
HETATM   25  CBC   D T1201      32.327  -0.797  11.974  1.00 61.36     0.032 A 
HETATM   26  CBB   D T1201      32.388   0.105  13.017  1.00 64.43     0.106 A 
HETATM   27  CBA   D T1201      31.232   0.668  13.508  1.00 52.93     0.013 A 
HETATM   28  CAZ   D T1201      29.999   0.346  12.953  1.00 65.17     0.002 A 
HETATM   29  CAY   D T1201      29.931  -0.557  11.900  1.00 59.73     0.019 A 
BRANCH  26  30
HETATM   30  SBD   D T1201      34.005   0.550  13.738  1.00107.25     0.281 S 
HETATM   31  OBJ   D T1201      34.607   1.553  12.860  1.00 84.83    -0.199 OA
HETATM   32  OBK   D T1201      33.848   1.362  14.946  1.00 96.98    -0.199 OA
BRANCH  30  33
HETATM   33  NBE   D T1201      35.065  -0.820  13.966  1.00 87.06    -0.189 NA
BRANCH  33  34
HETATM   34  CBF   D T1201      36.166  -1.277  13.093  1.00 65.85     0.097 C 
HETATM   35  CBH   D T1201      37.413  -0.418  13.195  1.00 75.28     0.025 C 
HETATM   36  CBI   D T1201      35.754  -1.181  11.636  1.00 63.96     0.025 C 
HETATM   37  CBG   D T1201      36.540  -2.730  13.371  1.00 65.02     0.025 C 
ENDBRANCH  33  34
ENDBRANCH  30  33
ENDBRANCH  26  30
ENDBRANCH  23  24
ENDBRANCH   7  23
TORSDOF 11
ENDMDL
MODEL 8
REMARK VINA RESULT:      -7.0      5.701      8.016
REMARK  11 active torsions:
REMARK  status: ('A' for Active; 'I' for Inactive)
REMARK    1  A    between atoms: NAP_5  and  CAO_6 
REMARK    2  A    between atoms: CAO_6  and  CAN_7 
REMARK    3  A    between atoms: CAN_7  and  OAM_8 
REMARK    4  A    between atoms: OAM_8  and  CAJ_9 
REMARK    5  A    between atoms: CAG_14  and  NAF_15 
REMARK    6  A    between atoms: NAF_15  and  C2_16 
REMARK    7  A    between atoms: C4_22  and  NAW_23 
REMARK    8  A    between atoms: NAW_23  and  CAX_24 
REMARK    9  A    between atoms: CBB_29  and  SBD_30 
REMARK   10  A    between atoms: SBD_30  and  NBE_33 
REMARK   11  A    between atoms: NBE_33  and  CBF_34 
ROOT
HETATM    1  C2    D T1201      39.652   0.063  13.037  1.00 59.36     0.751 A 
HETATM    2  N3    D T1201      40.555   0.133  12.071  1.00 55.19    -0.041 NA
HETATM    3  N1    D T1201      39.564   0.977  13.997  1.00 67.11    -0.058 NA
HETATM    4  C6    D T1201      40.389   2.014  14.017  1.00 64.11     0.117 A 
HETATM    5  C5    D T1201      41.354   2.133  13.023  1.00 65.49     0.034 A 
HETATM    6  CAA   D T1201      42.340   3.298  12.990  1.00 49.68     0.036 C 
HETATM    7  C4    D T1201      41.410   1.139  12.043  1.00 58.40     0.178 A 
ENDROOT
BRANCH   1   8
HETATM    8  NAF   D T1201      38.702  -1.029  13.077  1.00 62.85    -0.059 NA
BRANCH   8   9
HETATM    9  CAG   D T1201      37.331  -1.049  12.574  1.00 53.07     0.100 A 
HETATM   10  CAL   D T1201      36.374  -0.726  13.511  1.00 60.66     0.022 A 
HETATM   11  CAK   D T1201      35.030  -0.713  13.171  1.00 75.71     0.026 A 
HETATM   12  CAJ   D T1201      34.637  -1.026  11.882  1.00 62.98     0.094 A 
HETATM   13  CAI   D T1201      35.600  -1.351  10.925  1.00 62.12     0.026 A 
HETATM   14  CAH   D T1201      36.950  -1.362  11.268  1.00 51.41     0.022 A 
BRANCH  12  15
HETATM   15  OAM   D T1201      33.269  -0.980  11.597  1.00 60.42    -0.329 OA
BRANCH  15  16
HETATM   16  CAN   D T1201      32.485  -2.000  12.159  1.00 90.12     0.184 C 
BRANCH  16  17
HETATM   17  CAO   D T1201      31.209  -2.121  11.307  1.00 96.40     0.283 C 
BRANCH  17  18
HETATM   18  NAP   D T1201      30.894  -3.246  11.000  1.00 98.57     0.140 N 
HETATM   19  CAQ   D T1201      31.069  -3.455   9.753  1.00 96.89     0.250 C 
HETATM   20  CAR   D T1201      31.341  -5.044   9.614  1.00 91.95     0.037 C 
HETATM   21  CAS   D T1201      31.973  -5.379  10.655  1.00 99.10     0.037 C 
HETATM   22  CAT   D T1201      31.623  -4.345  11.750  1.00 98.40     0.250 C 
ENDBRANCH  17  18
ENDBRANCH  16  17
ENDBRANCH  15  16
ENDBRANCH  12  15
ENDBRANCH   8   9
ENDBRANCH   1   8
BRANCH   7  23
HETATM   23  NAW   D T1201      42.419   1.259  11.009  1.00 64.56    -0.227 NA
BRANCH  23  24
HETATM   24  CAX   D T1201      42.976   0.147  10.279  1.00 60.00     0.084 A 
HETATM   25  CBC   D T1201      42.564  -0.023   8.972  1.00 61.36     0.032 A 
HETATM   26  CBB   D T1201      43.066  -1.070   8.226  1.00 64.43     0.106 A 
HETATM   27  CBA   D T1201      43.964  -1.948   8.789  1.00 52.93     0.013 A 
HETATM   28  CAZ   D T1201      44.383  -1.781  10.105  1.00 65.17     0.002 A 
HETATM   29  CAY   D T1201      43.886  -0.726  10.858  1.00 59.73     0.019 A 
BRANCH  26  30
HETATM   30  SBD   D T1201      42.536  -1.285   6.492  1.00107.25     0.281 S 
HETATM   31  OBJ   D T1201      42.234   0.047   5.966  1.00 84.83    -0.199 OA
HETATM   32  OBK   D T1201      43.666  -1.626   5.626  1.00 96.98    -0.199 OA
BRANCH  30  33
HETATM   33  NBE   D T1201      41.180  -2.369   6.308  1.00 87.06    -0.189 NA
BRANCH  33  34
HETATM   34  CBF   D T1201      41.062  -3.768   6.770  1.00 65.85     0.097 C 
HETATM   35  CBH   D T1201      39.979  -4.551   6.050  1.00 75.28     0.025 C 
HETATM   36  CBI   D T1201      40.654  -3.805   8.231  1.00 63.96     0.025 C 
HETATM   37  CBG   D T1201      42.385  -4.518   6.642  1.00 65.02     0.025 C 
ENDBRANCH  33  34
ENDBRANCH  30  33
ENDBRANCH  26  30
ENDBRANCH  23  24
ENDBRANCH   7  23
TORSDOF 11
ENDMDL
MODEL 9
REMARK VINA RESULT:      -6.8      1.992      2.580
REMARK  11 active torsions:
REMARK  status: ('A' for Active; 'I' for Inactive)
REMARK    1  A    between atoms: NAP_5  and  CAO_6 
REMARK    2  A    between atoms: CAO_6  and  CAN_7 
REMARK    3  A    between atoms: CAN_7  and  OAM_8 
REMARK    4  A    between atoms: OAM_8  and  CAJ_9 
REMARK    5  A    between atoms: CAG_14  and  NAF_15 
REMARK    6  A    between atoms: NAF_15  and  C2_16 
REMARK    7  A    between atoms: C4_22  and  NAW_23 
REMARK    8  A    between atoms: NAW_23  and  CAX_24 
REMARK    9  A    between atoms: CBB_29  and  SBD_30 
REMARK   10  A    between atoms: SBD_30  and  NBE_33 
REMARK   11  A    between atoms: NBE_33  and  CBF_34 
ROOT
HETATM    1  C2    D T1201      38.019  -5.340   9.111  1.00 59.36     0.751 A 
HETATM    2  N3    D T1201      38.740  -4.814   8.133  1.00 55.19    -0.041 NA
HETATM    3  N1    D T1201      38.515  -6.232   9.961  1.00 67.11    -0.058 NA
HETATM    4  C6    D T1201      39.776  -6.629   9.861  1.00 64.11     0.117 A 
HETATM    5  C5    D T1201      40.574  -6.103   8.851  1.00 65.49     0.034 A 
HETATM    6  CAA   D T1201      42.033  -6.521   8.675  1.00 49.68     0.036 C 
HETATM    7  C4    D T1201      40.000  -5.177   7.978  1.00 58.40     0.178 A 
ENDROOT
BRANCH   1   8
HETATM    8  NAF   D T1201      36.638  -4.948   9.299  1.00 62.85    -0.059 NA
BRANCH   8   9
HETATM    9  CAG   D T1201      36.118  -3.841  10.096  1.00 53.07     0.100 A 
HETATM   10  CAL   D T1201      35.483  -4.222  11.259  1.00 60.66     0.022 A 
HETATM   11  CAK   D T1201      34.935  -3.272  12.107  1.00 75.71     0.026 A 
HETATM   12  CAJ   D T1201      35.021  -1.928  11.793  1.00 62.98     0.094 A 
HETATM   13  CAI   D T1201      35.665  -1.532  10.620  1.00 62.12     0.026 A 
HETATM   14  CAH   D T1201      36.217  -2.487   9.769  1.00 51.41     0.022 A 
BRANCH  12  15
HETATM   15  OAM   D T1201      34.462  -1.018  12.697  1.00 60.42    -0.329 OA
BRANCH  15  16
HETATM   16  CAN   D T1201      33.062  -1.026  12.797  1.00 90.12     0.184 C 
BRANCH  16  17
HETATM   17  CAO   D T1201      32.591   0.438  12.749  1.00 96.40     0.283 C 
BRANCH  17  18
HETATM   18  NAP   D T1201      31.438   0.602  12.424  1.00 98.57     0.140 N 
HETATM   19  CAQ   D T1201      31.104  -0.187  11.478  1.00 96.89     0.250 C 
HETATM   20  CAR   D T1201      29.510  -0.413  11.645  1.00 91.95     0.037 C 
HETATM   21  CAS   D T1201      29.287  -0.391  12.888  1.00 99.10     0.037 C 
HETATM   22  CAT   D T1201      30.426   0.426  13.539  1.00 98.40     0.250 C 
ENDBRANCH  17  18
ENDBRANCH  16  17
ENDBRANCH  15  16
ENDBRANCH  12  15
ENDBRANCH   8   9
ENDBRANCH   1   8
BRANCH   7  23
HETATM   23  NAW   D T1201      40.830  -4.632   6.921  1.00 64.56    -0.227 NA
BRANCH  23  24
HETATM   24  CAX   D T1201      40.433  -4.539   5.538  1.00 60.00     0.084 A 
HETATM   25  CBC   D T1201      40.062  -5.709   4.905  1.00 61.36     0.032 A 
HETATM   26  CBB   D T1201      39.670  -5.679   3.582  1.00 64.43     0.106 A 
HETATM   27  CBA   D T1201      39.662  -4.487   2.894  1.00 52.93     0.013 A 
HETATM   28  CAZ   D T1201      40.033  -3.305   3.527  1.00 65.17     0.002 A 
HETATM   29  CAY   D T1201      40.422  -3.329   4.859  1.00 59.73     0.019 A 
BRANCH  26  30
HETATM   30  SBD   D T1201      39.163  -7.223   2.750  1.00107.25     0.281 S 
HETATM   31  OBJ   D T1201      39.763  -7.211   1.416  1.00 84.83    -0.199 OA
HETATM   32  OBK   D T1201      39.858  -8.384   3.308  1.00 96.98    -0.199 OA
BRANCH  30  33
HETATM   33  NBE   D T1201      37.431  -7.434   2.672  1.00 87.06    -0.189 NA
BRANCH  33  34
HETATM   34  CBF   D T1201      36.558  -8.168   3.610  1.00 65.85     0.097 C 
HETATM   35  CBH   D T1201      36.743  -9.673   3.554  1.00 75.28     0.025 C 
HETATM   36  CBI   D T1201      35.100  -7.949   3.252  1.00 63.96     0.025 C 
HETATM   37  CBG   D T1201      36.754  -7.697   5.049  1.00 65.02     0.025 C 
ENDBRANCH  33  34
ENDBRANCH  30  33
ENDBRANCH  26  30
ENDBRANCH  23  24
ENDBRANCH   7  23
TORSDOF 11
ENDMDL
