MODEL 1
REMARK VINA RESULT:    -7.656      0.000      0.000
REMARK INTER + INTRA:         -13.820
REMARK INTER:                 -12.579
REMARK INTRA:                  -1.241
REMARK UNBOUND:                -1.241
REMARK  11 active torsions:
REMARK  status: ('A' for Active; 'I' for Inactive)
REMARK    1  A    between atoms: NAP_5  and  CAO_6 
REMARK    2  A    between atoms: CAO_6  and  CAN_7 
REMARK    3  A    between atoms: CAN_7  and  OAM_8 
REMARK    4  A    between atoms: OAM_8  and  CAJ_9 
REMARK    5  A    between atoms: CAG_14  and  NAF_15 
REMARK    6  A    between atoms: NAF_15  and  C2_16 
REMARK    7  A    between atoms: C4_22  and  NAW_23 
REMARK    8  A    between atoms: NAW_23  and  CAX_24 
REMARK    9  A    between atoms: CBB_29  and  SBD_30 
REMARK   10  A    between atoms: SBD_30  and  NBE_33 
REMARK   11  A    between atoms: NBE_33  and  CBF_34 
ROOT
HETATM    1  C2    D T1201      37.037  -4.600   8.736  1.00 59.36     0.751 A 
HETATM    2  N3    D T1201      37.634  -4.937   7.603  1.00 55.19    -0.041 NA
HETATM    3  N1    D T1201      37.468  -5.020   9.920  1.00 67.11    -0.058 NA
HETATM    4  C6    D T1201      38.536  -5.799  10.010  1.00 64.11     0.117 A 
HETATM    5  C5    D T1201      39.199  -6.179   8.848  1.00 65.49     0.034 A 
HETATM    6  CAA   D T1201      40.431  -7.081   8.879  1.00 49.68     0.036 C 
HETATM    7  C4    D T1201      38.697  -5.719   7.628  1.00 58.40     0.178 A 
ENDROOT
BRANCH   1   8
HETATM    8  NAF   D T1201      35.874  -3.737   8.725  1.00 62.85    -0.059 NA
BRANCH   8   9
HETATM    9  CAG   D T1201      35.286  -3.006   9.844  1.00 53.07     0.100 A 
HETATM   10  CAL   D T1201      35.999  -1.895  10.239  1.00 60.66     0.022 A 
HETATM   11  CAK   D T1201      35.558  -1.113  11.296  1.00 75.71     0.026 A 
HETATM   12  CAJ   D T1201      34.394  -1.443  11.966  1.00 62.98     0.094 A 
HETATM   13  CAI   D T1201      33.663  -2.565  11.570  1.00 62.12     0.026 A 
HETATM   14  CAH   D T1201      34.106  -3.348  10.508  1.00 51.41     0.022 A 
BRANCH  12  15
HETATM   15  OAM   D T1201      33.994  -0.606  13.012  1.00 60.42    -0.329 OA
BRANCH  15  16
HETATM   16  CAN   D T1201      33.256   0.531  12.647  1.00 90.12     0.184 C 
BRANCH  16  17
HETATM   17  CAO   D T1201      31.930   0.489  13.426  1.00 96.40     0.283 C 
BRANCH  17  18
HETATM   18  NAP   D T1201      31.110  -0.296  13.014  1.00 98.57     0.140 N 
HETATM   19  CAQ   D T1201      29.990  -0.155  13.611  1.00 96.89     0.250 C 
HETATM   20  CAR   D T1201      28.870  -0.652  12.554  1.00 91.95     0.037 C 
HETATM   21  CAS   D T1201      29.302  -0.323  11.413  1.00 99.10     0.037 C 
HETATM   22  CAT   D T1201      30.840  -0.219  11.524  1.00 98.40     0.250 C 
ENDBRANCH  17  18
ENDBRANCH  16  17
ENDBRANCH  15  16
ENDBRANCH  12  15
ENDBRANCH   8   9
ENDBRANCH   1   8
BRANCH   7  23
HETATM   23  NAW   D T1201      39.385  -6.119   6.415  1.00 64.56    -0.227 NA
BRANCH  23  24
HETATM   24  CAX   D T1201      38.733  -6.669   5.253  1.00 60.00     0.084 A 
HETATM   25  CBC   D T1201      37.816  -7.680   5.460  1.00 61.36     0.032 A 
HETATM   26  CBB   D T1201      37.161  -8.243   4.383  1.00 64.43     0.106 A 
HETATM   27  CBA   D T1201      37.432  -7.804   3.107  1.00 52.93     0.013 A 
HETATM   28  CAZ   D T1201      38.354  -6.785   2.893  1.00 65.17     0.002 A 
HETATM   29  CAY   D T1201      39.011  -6.211   3.973  1.00 59.73     0.019 A 
BRANCH  26  30
HETATM   30  SBD   D T1201      35.935  -9.567   4.658  1.00107.25     0.281 S 
HETATM   31  OBJ   D T1201      36.130 -10.561   3.602  1.00 84.83    -0.199 OA
HETATM   32  OBK   D T1201      36.286 -10.389   5.818  1.00 96.98    -0.199 OA
BRANCH  30  33
HETATM   33  NBE   D T1201      34.287  -8.992   4.700  1.00 87.06    -0.189 NA
BRANCH  33  34
HETATM   34  CBF   D T1201      33.042  -9.780   4.583  1.00 65.85     0.097 C 
HETATM   35  CBH   D T1201      31.806  -9.025   5.033  1.00 75.28     0.025 C 
HETATM   36  CBI   D T1201      33.102 -10.993   5.493  1.00 63.96     0.025 C 
HETATM   37  CBG   D T1201      32.826 -10.284   3.159  1.00 65.02     0.025 C 
ENDBRANCH  33  34
ENDBRANCH  30  33
ENDBRANCH  26  30
ENDBRANCH  23  24
ENDBRANCH   7  23
TORSDOF 11
ENDMDL
MODEL 2
REMARK VINA RESULT:    -7.554      5.122      8.421
REMARK INTER + INTRA:         -13.652
REMARK INTER:                 -12.179
REMARK INTRA:                  -1.473
REMARK UNBOUND:                -1.241
REMARK  11 active torsions:
REMARK  status: ('A' for Active; 'I' for Inactive)
REMARK    1  A    between atoms: NAP_5  and  CAO_6 
REMARK    2  A    between atoms: CAO_6  and  CAN_7 
REMARK    3  A    between atoms: CAN_7  and  OAM_8 
REMARK    4  A    between atoms: OAM_8  and  CAJ_9 
REMARK    5  A    between atoms: CAG_14  and  NAF_15 
REMARK    6  A    between atoms: NAF_15  and  C2_16 
REMARK    7  A    between atoms: C4_22  and  NAW_23 
REMARK    8  A    between atoms: NAW_23  and  CAX_24 
REMARK    9  A    between atoms: CBB_29  and  SBD_30 
REMARK   10  A    between atoms: SBD_30  and  NBE_33 
REMARK   11  A    between atoms: NBE_33  and  CBF_34 
ROOT
HETATM    1  C2    D T1201      38.829  -4.541   8.865  1.00 59.36     0.751 A 
HETATM    2  N3    D T1201      40.045  -4.016   8.871  1.00 55.19    -0.041 NA
HETATM    3  N1    D T1201      38.250  -4.982   7.754  1.00 67.11    -0.058 NA
HETATM    4  C6    D T1201      38.885  -4.918   6.592  1.00 64.11     0.117 A 
HETATM    5  C5    D T1201      40.165  -4.377   6.548  1.00 65.49     0.034 A 
HETATM    6  CAA   D T1201      40.951  -4.266   5.243  1.00 49.68     0.036 C 
HETATM    7  C4    D T1201      40.723  -3.917   7.744  1.00 58.40     0.178 A 
ENDROOT
BRANCH   1   8
HETATM    8  NAF   D T1201      38.075  -4.663  10.095  1.00 62.85    -0.059 NA
BRANCH   8   9
HETATM    9  CAG   D T1201      37.360  -3.617  10.821  1.00 53.07     0.100 A 
HETATM   10  CAL   D T1201      36.067  -3.943  11.169  1.00 60.66     0.022 A 
HETATM   11  CAK   D T1201      35.272  -3.039  11.855  1.00 75.71     0.026 A 
HETATM   12  CAJ   D T1201      35.771  -1.794  12.197  1.00 62.98     0.094 A 
HETATM   13  CAI   D T1201      37.080  -1.456  11.851  1.00 62.12     0.026 A 
HETATM   14  CAH   D T1201      37.879  -2.367  11.164  1.00 51.41     0.022 A 
BRANCH  12  15
HETATM   15  OAM   D T1201      34.925  -0.932  12.901  1.00 60.42    -0.329 OA
BRANCH  15  16
HETATM   16  CAN   D T1201      33.568  -0.968  12.544  1.00 90.12     0.184 C 
BRANCH  16  17
HETATM   17  CAO   D T1201      32.935   0.355  13.009  1.00 96.40     0.283 C 
BRANCH  17  18
HETATM   18  NAP   D T1201      31.821   0.573  12.596  1.00 98.57     0.140 N 
HETATM   19  CAQ   D T1201      31.445  -0.330  11.775  1.00 96.89     0.250 C 
HETATM   20  CAR   D T1201      29.830  -0.369  11.885  1.00 91.95     0.037 C 
HETATM   21  CAS   D T1201      29.560  -0.115  13.092  1.00 99.10     0.037 C 
HETATM   22  CAT   D T1201      30.751   0.687  13.664  1.00 98.40     0.250 C 
ENDBRANCH  17  18
ENDBRANCH  16  17
ENDBRANCH  15  16
ENDBRANCH  12  15
ENDBRANCH   8   9
ENDBRANCH   1   8
BRANCH   7  23
HETATM   23  NAW   D T1201      42.056  -3.348   7.697  1.00 64.56    -0.227 NA
BRANCH  23  24
HETATM   24  CAX   D T1201      42.349  -1.945   7.856  1.00 60.00     0.084 A 
HETATM   25  CBC   D T1201      42.413  -1.452   9.144  1.00 61.36     0.032 A 
HETATM   26  CBB   D T1201      42.691  -0.117   9.354  1.00 64.43     0.106 A 
HETATM   27  CBA   D T1201      42.893   0.721   8.281  1.00 52.93     0.013 A 
HETATM   28  CAZ   D T1201      42.832   0.230   6.982  1.00 65.17     0.002 A 
HETATM   29  CAY   D T1201      42.558  -1.113   6.764  1.00 59.73     0.019 A 
BRANCH  26  30
HETATM   30  SBD   D T1201      42.793   0.531  11.058  1.00107.25     0.281 S 
HETATM   31  OBJ   D T1201      43.564  -0.434  11.841  1.00 84.83    -0.199 OA
HETATM   32  OBK   D T1201      43.702   1.676  11.141  1.00 96.98    -0.199 OA
BRANCH  30  33
HETATM   33  NBE   D T1201      41.233   0.842  11.779  1.00 87.06    -0.189 NA
BRANCH  33  34
HETATM   34  CBF   D T1201      40.939   1.323  13.145  1.00 65.85     0.097 C 
HETATM   35  CBH   D T1201      41.998   0.937  14.161  1.00 75.28     0.025 C 
HETATM   36  CBI   D T1201      39.662   0.687  13.661  1.00 63.96     0.025 C 
HETATM   37  CBG   D T1201      40.746   2.837  13.180  1.00 65.02     0.025 C 
ENDBRANCH  33  34
ENDBRANCH  30  33
ENDBRANCH  26  30
ENDBRANCH  23  24
ENDBRANCH   7  23
TORSDOF 11
ENDMDL
MODEL 3
REMARK VINA RESULT:    -7.534      5.187      8.056
REMARK INTER + INTRA:         -13.620
REMARK INTER:                 -12.215
REMARK INTRA:                  -1.405
REMARK UNBOUND:                -1.241
REMARK  11 active torsions:
REMARK  status: ('A' for Active; 'I' for Inactive)
REMARK    1  A    between atoms: NAP_5  and  CAO_6 
REMARK    2  A    between atoms: CAO_6  and  CAN_7 
REMARK    3  A    between atoms: CAN_7  and  OAM_8 
REMARK    4  A    between atoms: OAM_8  and  CAJ_9 
REMARK    5  A    between atoms: CAG_14  and  NAF_15 
REMARK    6  A    between atoms: NAF_15  and  C2_16 
REMARK    7  A    between atoms: C4_22  and  NAW_23 
REMARK    8  A    between atoms: NAW_23  and  CAX_24 
REMARK    9  A    between atoms: CBB_29  and  SBD_30 
REMARK   10  A    between atoms: SBD_30  and  NBE_33 
REMARK   11  A    between atoms: NBE_33  and  CBF_34 
ROOT
HETATM    1  C2    D T1201      38.430  -4.386   9.235  1.00 59.36     0.751 A 
HETATM    2  N3    D T1201      39.609  -3.987   8.785  1.00 55.19    -0.041 NA
HETATM    3  N1    D T1201      37.553  -5.023   8.467  1.00 67.11    -0.058 NA
HETATM    4  C6    D T1201      37.837  -5.291   7.201  1.00 64.11     0.117 A 
HETATM    5  C5    D T1201      39.064  -4.893   6.682  1.00 65.49     0.034 A 
HETATM    6  CAA   D T1201      39.453  -5.164   5.230  1.00 49.68     0.036 C 
HETATM    7  C4    D T1201      39.945  -4.218   7.530  1.00 58.40     0.178 A 
ENDROOT
BRANCH   1   8
HETATM    8  NAF   D T1201      38.049  -4.147  10.612  1.00 62.85    -0.059 NA
BRANCH   8   9
HETATM    9  CAG   D T1201      37.032  -3.230  11.118  1.00 53.07     0.100 A 
HETATM   10  CAL   D T1201      36.912  -2.058  10.402  1.00 60.66     0.022 A 
HETATM   11  CAK   D T1201      35.990  -1.094  10.777  1.00 75.71     0.026 A 
HETATM   12  CAJ   D T1201      35.179  -1.299  11.879  1.00 62.98     0.094 A 
HETATM   13  CAI   D T1201      35.292  -2.484  12.609  1.00 62.12     0.026 A 
HETATM   14  CAH   D T1201      36.217  -3.453  12.229  1.00 51.41     0.022 A 
BRANCH  12  15
HETATM   15  OAM   D T1201      34.259  -0.296  12.198  1.00 60.42    -0.329 OA
BRANCH  15  16
HETATM   16  CAN   D T1201      32.905  -0.665  12.162  1.00 90.12     0.184 C 
BRANCH  16  17
HETATM   17  CAO   D T1201      32.119   0.393  12.956  1.00 96.40     0.283 C 
BRANCH  17  18
HETATM   18  NAP   D T1201      30.976   0.563  12.606  1.00 98.57     0.140 N 
HETATM   19  CAQ   D T1201      30.755   0.035  11.465  1.00 96.89     0.250 C 
HETATM   20  CAR   D T1201      29.178  -0.330  11.454  1.00 91.95     0.037 C 
HETATM   21  CAS   D T1201      28.891  -0.655  12.641  1.00 99.10     0.037 C 
HETATM   22  CAT   D T1201      29.925   0.031  13.562  1.00 98.40     0.250 C 
ENDBRANCH  17  18
ENDBRANCH  16  17
ENDBRANCH  15  16
ENDBRANCH  12  15
ENDBRANCH   8   9
ENDBRANCH   1   8
BRANCH   7  23
HETATM   23  NAW   D T1201      41.224  -3.798   6.988  1.00 64.56    -0.227 NA
BRANCH  23  24
HETATM   24  CAX   D T1201      41.553  -2.439   6.637  1.00 60.00     0.084 A 
HETATM   25  CBC   D T1201      42.224  -1.685   7.580  1.00 61.36     0.032 A 
HETATM   26  CBB   D T1201      42.566  -0.379   7.297  1.00 64.43     0.106 A 
HETATM   27  CBA   D T1201      42.228   0.173   6.082  1.00 52.93     0.013 A 
HETATM   28  CAZ   D T1201      41.555  -0.582   5.127  1.00 65.17     0.002 A 
HETATM   29  CAY   D T1201      41.213  -1.899   5.404  1.00 59.73     0.019 A 
BRANCH  26  30
HETATM   30  SBD   D T1201      43.468   0.612   8.537  1.00107.25     0.281 S 
HETATM   31  OBJ   D T1201      44.821   0.819   8.021  1.00 84.83    -0.199 OA
HETATM   32  OBK   D T1201      43.008   2.002   8.548  1.00 96.98    -0.199 OA
BRANCH  30  33
HETATM   33  NBE   D T1201      43.491  -0.114  10.124  1.00 87.06    -0.189 NA
BRANCH  33  34
HETATM   34  CBF   D T1201      43.368   0.555  11.436  1.00 65.85     0.097 C 
HETATM   35  CBH   D T1201      43.682  -0.354  12.609  1.00 75.28     0.025 C 
HETATM   36  CBI   D T1201      41.935   0.997  11.666  1.00 63.96     0.025 C 
HETATM   37  CBG   D T1201      44.252   1.797  11.520  1.00 65.02     0.025 C 
ENDBRANCH  33  34
ENDBRANCH  30  33
ENDBRANCH  26  30
ENDBRANCH  23  24
ENDBRANCH   7  23
TORSDOF 11
ENDMDL
MODEL 4
REMARK VINA RESULT:    -7.495      6.878     10.325
REMARK INTER + INTRA:         -13.556
REMARK INTER:                 -12.966
REMARK INTRA:                  -0.590
REMARK UNBOUND:                -1.241
REMARK  11 active torsions:
REMARK  status: ('A' for Active; 'I' for Inactive)
REMARK    1  A    between atoms: NAP_5  and  CAO_6 
REMARK    2  A    between atoms: CAO_6  and  CAN_7 
REMARK    3  A    between atoms: CAN_7  and  OAM_8 
REMARK    4  A    between atoms: OAM_8  and  CAJ_9 
REMARK    5  A    between atoms: CAG_14  and  NAF_15 
REMARK    6  A    between atoms: NAF_15  and  C2_16 
REMARK    7  A    between atoms: C4_22  and  NAW_23 
REMARK    8  A    between atoms: NAW_23  and  CAX_24 
REMARK    9  A    between atoms: CBB_29  and  SBD_30 
REMARK   10  A    between atoms: SBD_30  and  NBE_33 
REMARK   11  A    between atoms: NBE_33  and  CBF_34 
ROOT
HETATM    1  C2    D T1201      39.000  -0.506  12.748  1.00 59.36     0.751 A 
HETATM    2  N3    D T1201      38.002  -0.402  11.884  1.00 55.19    -0.041 NA
HETATM    3  N1    D T1201      38.906  -1.224  13.862  1.00 67.11    -0.058 NA
HETATM    4  C6    D T1201      37.790  -1.879  14.148  1.00 64.11     0.117 A 
HETATM    5  C5    D T1201      36.714  -1.802  13.271  1.00 65.49     0.034 A 
HETATM    6  CAA   D T1201      35.397  -2.527  13.542  1.00 49.68     0.036 C 
HETATM    7  C4    D T1201      36.862  -1.025  12.119  1.00 58.40     0.178 A 
ENDROOT
BRANCH   1   8
HETATM    8  NAF   D T1201      40.259   0.165  12.501  1.00 62.85    -0.059 NA
BRANCH   8   9
HETATM    9  CAG   D T1201      41.075   0.924  13.445  1.00 53.07     0.100 A 
HETATM   10  CAL   D T1201      42.226   0.282  13.850  1.00 60.66     0.022 A 
HETATM   11  CAK   D T1201      43.090   0.885  14.751  1.00 75.71     0.026 A 
HETATM   12  CAJ   D T1201      42.803   2.141  15.254  1.00 62.98     0.094 A 
HETATM   13  CAI   D T1201      41.642   2.800  14.847  1.00 62.12     0.026 A 
HETATM   14  CAH   D T1201      40.776   2.194  13.940  1.00 51.41     0.022 A 
BRANCH  12  15
HETATM   15  OAM   D T1201      43.721   2.702  16.147  1.00 60.42    -0.329 OA
BRANCH  15  16
HETATM   16  CAN   D T1201      44.613   1.809  16.760  1.00 90.12     0.184 C 
BRANCH  16  17
HETATM   17  CAO   D T1201      44.367   1.882  18.277  1.00 96.40     0.283 C 
BRANCH  17  18
HETATM   18  NAP   D T1201      44.474   0.836  18.872  1.00 98.57     0.140 N 
HETATM   19  CAQ   D T1201      43.880   0.881  20.002  1.00 96.89     0.250 C 
HETATM   20  CAR   D T1201      43.452  -0.645  20.327  1.00 91.95     0.037 C 
HETATM   21  CAS   D T1201      43.176  -1.172  19.213  1.00 99.10     0.037 C 
HETATM   22  CAT   D T1201      43.948  -0.380  18.133  1.00 98.40     0.250 C 
ENDBRANCH  17  18
ENDBRANCH  16  17
ENDBRANCH  15  16
ENDBRANCH  12  15
ENDBRANCH   8   9
ENDBRANCH   1   8
BRANCH   7  23
HETATM   23  NAW   D T1201      35.739  -0.940  11.206  1.00 64.56    -0.227 NA
BRANCH  23  24
HETATM   24  CAX   D T1201      35.060  -2.080  10.641  1.00 60.00     0.084 A 
HETATM   25  CBC   D T1201      33.687  -2.132  10.777  1.00 61.36     0.032 A 
HETATM   26  CBB   D T1201      32.985  -3.199  10.254  1.00 64.43     0.106 A 
HETATM   27  CBA   D T1201      33.656  -4.213   9.609  1.00 52.93     0.013 A 
HETATM   28  CAZ   D T1201      35.039  -4.165   9.467  1.00 65.17     0.002 A 
HETATM   29  CAY   D T1201      35.749  -3.091   9.986  1.00 59.73     0.019 A 
BRANCH  26  30
HETATM   30  SBD   D T1201      31.168  -3.258  10.419  1.00107.25     0.281 S 
HETATM   31  OBJ   D T1201      30.666  -4.113   9.343  1.00 84.83    -0.199 OA
HETATM   32  OBK   D T1201      30.762  -4.069  11.568  1.00 96.98    -0.199 OA
BRANCH  30  33
HETATM   33  NBE   D T1201      30.415  -1.683  10.391  1.00 87.06    -0.189 NA
BRANCH  33  34
HETATM   34  CBF   D T1201      30.295  -0.710  11.497  1.00 65.85     0.097 C 
HETATM   35  CBH   D T1201      31.244  -0.986  12.649  1.00 75.28     0.025 C 
HETATM   36  CBI   D T1201      28.911  -0.786  12.114  1.00 63.96     0.025 C 
HETATM   37  CBG   D T1201      30.505   0.722  11.013  1.00 65.02     0.025 C 
ENDBRANCH  33  34
ENDBRANCH  30  33
ENDBRANCH  26  30
ENDBRANCH  23  24
ENDBRANCH   7  23
TORSDOF 11
ENDMDL
MODEL 5
REMARK VINA RESULT:    -7.485      5.444      8.231
REMARK INTER + INTRA:         -13.539
REMARK INTER:                 -12.214
REMARK INTRA:                  -1.326
REMARK UNBOUND:                -1.241
REMARK  11 active torsions:
REMARK  status: ('A' for Active; 'I' for Inactive)
REMARK    1  A    between atoms: NAP_5  and  CAO_6 
REMARK    2  A    between atoms: CAO_6  and  CAN_7 
REMARK    3  A    between atoms: CAN_7  and  OAM_8 
REMARK    4  A    between atoms: OAM_8  and  CAJ_9 
REMARK    5  A    between atoms: CAG_14  and  NAF_15 
REMARK    6  A    between atoms: NAF_15  and  C2_16 
REMARK    7  A    between atoms: C4_22  and  NAW_23 
REMARK    8  A    between atoms: NAW_23  and  CAX_24 
REMARK    9  A    between atoms: CBB_29  and  SBD_30 
REMARK   10  A    between atoms: SBD_30  and  NBE_33 
REMARK   11  A    between atoms: NBE_33  and  CBF_34 
ROOT
HETATM    1  C2    D T1201      38.592  -4.631   8.876  1.00 59.36     0.751 A 
HETATM    2  N3    D T1201      39.692  -4.011   8.479  1.00 55.19    -0.041 NA
HETATM    3  N1    D T1201      38.600  -5.887   9.309  1.00 67.11    -0.058 NA
HETATM    4  C6    D T1201      39.732  -6.574   9.364  1.00 64.11     0.117 A 
HETATM    5  C5    D T1201      40.914  -5.965   8.958  1.00 65.49     0.034 A 
HETATM    6  CAA   D T1201      42.253  -6.700   8.988  1.00 49.68     0.036 C 
HETATM    7  C4    D T1201      40.849  -4.646   8.502  1.00 58.40     0.178 A 
ENDROOT
BRANCH   1   8
HETATM    8  NAF   D T1201      37.316  -3.946   8.864  1.00 62.85    -0.059 NA
BRANCH   8   9
HETATM    9  CAG   D T1201      36.579  -3.395   9.998  1.00 53.07     0.100 A 
HETATM   10  CAL   D T1201      36.557  -2.018  10.050  1.00 60.66     0.022 A 
HETATM   11  CAK   D T1201      35.898  -1.362  11.079  1.00 75.71     0.026 A 
HETATM   12  CAJ   D T1201      35.257  -2.088  12.067  1.00 62.98     0.094 A 
HETATM   13  CAI   D T1201      35.272  -3.483  12.020  1.00 62.12     0.026 A 
HETATM   14  CAH   D T1201      35.931  -4.140  10.985  1.00 51.41     0.022 A 
BRANCH  12  15
HETATM   15  OAM   D T1201      34.598  -1.369  13.069  1.00 60.42    -0.329 OA
BRANCH  15  16
HETATM   16  CAN   D T1201      33.733  -0.352  12.635  1.00 90.12     0.184 C 
BRANCH  16  17
HETATM   17  CAO   D T1201      32.521  -1.031  11.975  1.00 96.40     0.283 C 
BRANCH  17  18
HETATM   18  NAP   D T1201      31.496  -0.391  11.987  1.00 98.57     0.140 N 
HETATM   19  CAQ   D T1201      30.506  -1.090  11.585  1.00 96.89     0.250 C 
HETATM   20  CAR   D T1201      29.206  -0.460  12.314  1.00 91.95     0.037 C 
HETATM   21  CAS   D T1201      29.601  -0.072  13.450  1.00 99.10     0.037 C 
HETATM   22  CAT   D T1201      31.119   0.192  13.336  1.00 98.40     0.250 C 
ENDBRANCH  17  18
ENDBRANCH  16  17
ENDBRANCH  15  16
ENDBRANCH  12  15
ENDBRANCH   8   9
ENDBRANCH   1   8
BRANCH   7  23
HETATM   23  NAW   D T1201      42.081  -4.012   8.073  1.00 64.56    -0.227 NA
BRANCH  23  24
HETATM   24  CAX   D T1201      42.919  -3.202   8.922  1.00 60.00     0.084 A 
HETATM   25  CBC   D T1201      42.458  -1.942   9.250  1.00 61.36     0.032 A 
HETATM   26  CBB   D T1201      43.218  -1.124  10.061  1.00 64.43     0.106 A 
HETATM   27  CBA   D T1201      44.437  -1.560  10.529  1.00 52.93     0.013 A 
HETATM   28  CAZ   D T1201      44.905  -2.828  10.204  1.00 65.17     0.002 A 
HETATM   29  CAY   D T1201      44.142  -3.658   9.393  1.00 59.73     0.019 A 
BRANCH  26  30
HETATM   30  SBD   D T1201      42.601   0.535  10.510  1.00107.25     0.281 S 
HETATM   31  OBJ   D T1201      43.689   1.226  11.202  1.00 84.83    -0.199 OA
HETATM   32  OBK   D T1201      42.486   1.399   9.334  1.00 96.98    -0.199 OA
BRANCH  30  33
HETATM   33  NBE   D T1201      41.148   0.498  11.478  1.00 87.06    -0.189 NA
BRANCH  33  34
HETATM   34  CBF   D T1201      40.968   0.957  12.871  1.00 65.85     0.097 C 
HETATM   35  CBH   D T1201      41.101   2.460  13.032  1.00 75.28     0.025 C 
HETATM   36  CBI   D T1201      42.054   0.379  13.758  1.00 63.96     0.025 C 
HETATM   37  CBG   D T1201      39.623   0.514  13.441  1.00 65.02     0.025 C 
ENDBRANCH  33  34
ENDBRANCH  30  33
ENDBRANCH  26  30
ENDBRANCH  23  24
ENDBRANCH   7  23
TORSDOF 11
ENDMDL
MODEL 6
REMARK VINA RESULT:    -7.477      5.286      7.332
REMARK INTER + INTRA:         -13.527
REMARK INTER:                 -11.985
REMARK INTRA:                  -1.542
REMARK UNBOUND:                -1.241
REMARK  11 active torsions:
REMARK  status: ('A' for Active; 'I' for Inactive)
REMARK    1  A    between atoms: NAP_5  and  CAO_6 
REMARK    2  A    between atoms: CAO_6  and  CAN_7 
REMARK    3  A    between atoms: CAN_7  and  OAM_8 
REMARK    4  A    between atoms: OAM_8  and  CAJ_9 
REMARK    5  A    between atoms: CAG_14  and  NAF_15 
REMARK    6  A    between atoms: NAF_15  and  C2_16 
REMARK    7  A    between atoms: C4_22  and  NAW_23 
REMARK    8  A    between atoms: NAW_23  and  CAX_24 
REMARK    9  A    between atoms: CBB_29  and  SBD_30 
REMARK   10  A    between atoms: SBD_30  and  NBE_33 
REMARK   11  A    between atoms: NBE_33  and  CBF_34 
ROOT
HETATM    1  C2    D T1201      39.960   0.611  13.182  1.00 59.36     0.751 A 
HETATM    2  N3    D T1201      40.922   0.135  12.408  1.00 55.19    -0.041 NA
HETATM    3  N1    D T1201      39.934   1.876  13.590  1.00 67.11    -0.058 NA
HETATM    4  C6    D T1201      40.886   2.721  13.223  1.00 64.11     0.117 A 
HETATM    5  C5    D T1201      41.919   2.268  12.408  1.00 65.49     0.034 A 
HETATM    6  CAA   D T1201      43.051   3.187  11.954  1.00 49.68     0.036 C 
HETATM    7  C4    D T1201      41.903   0.927  12.017  1.00 58.40     0.178 A 
ENDROOT
BRANCH   1   8
HETATM    8  NAF   D T1201      38.873  -0.242  13.614  1.00 62.85    -0.059 NA
BRANCH   8   9
HETATM    9  CAG   D T1201      37.703  -0.666  12.849  1.00 53.07     0.100 A 
HETATM   10  CAL   D T1201      36.530  -0.705  13.572  1.00 60.66     0.022 A 
HETATM   11  CAK   D T1201      35.344  -1.097  12.971  1.00 75.71     0.026 A 
HETATM   12  CAJ   D T1201      35.327  -1.455  11.635  1.00 62.98     0.094 A 
HETATM   13  CAI   D T1201      36.510  -1.415  10.894  1.00 62.12     0.026 A 
HETATM   14  CAH   D T1201      37.700  -1.019  11.498  1.00 51.41     0.022 A 
BRANCH  12  15
HETATM   15  OAM   D T1201      34.097  -1.826  11.083  1.00 60.42    -0.329 OA
BRANCH  15  16
HETATM   16  CAN   D T1201      33.040  -2.002  11.989  1.00 90.12     0.184 C 
BRANCH  16  17
HETATM   17  CAO   D T1201      31.732  -1.723  11.229  1.00 96.40     0.283 C 
BRANCH  17  18
HETATM   18  NAP   D T1201      31.092  -0.778  11.625  1.00 98.57     0.140 N 
HETATM   19  CAQ   D T1201      29.987  -1.150  12.147  1.00 96.89     0.250 C 
HETATM   20  CAR   D T1201      29.617  -0.010  13.234  1.00 91.95     0.037 C 
HETATM   21  CAS   D T1201      30.719   0.388  13.706  1.00 99.10     0.037 C 
HETATM   22  CAT   D T1201      31.800   0.097  12.641  1.00 98.40     0.250 C 
ENDBRANCH  17  18
ENDBRANCH  16  17
ENDBRANCH  15  16
ENDBRANCH  12  15
ENDBRANCH   8   9
ENDBRANCH   1   8
BRANCH   7  23
HETATM   23  NAW   D T1201      42.982   0.452  11.172  1.00 64.56    -0.227 NA
BRANCH  23  24
HETATM   24  CAX   D T1201      42.833   0.093   9.784  1.00 60.00     0.084 A 
HETATM   25  CBC   D T1201      42.514  -1.220   9.500  1.00 61.36     0.032 A 
HETATM   26  CBB   D T1201      42.358  -1.619   8.188  1.00 64.43     0.106 A 
HETATM   27  CBA   D T1201      42.530  -0.712   7.168  1.00 52.93     0.013 A 
HETATM   28  CAZ   D T1201      42.849   0.612   7.448  1.00 65.17     0.002 A 
HETATM   29  CAY   D T1201      43.003   1.021   8.766  1.00 59.73     0.019 A 
BRANCH  26  30
HETATM   30  SBD   D T1201      41.919  -3.351   7.813  1.00107.25     0.281 S 
HETATM   31  OBJ   D T1201      41.741  -3.447   6.364  1.00 84.83    -0.199 OA
HETATM   32  OBK   D T1201      43.072  -4.240   7.965  1.00 96.98    -0.199 OA
BRANCH  30  33
HETATM   33  NBE   D T1201      40.505  -3.912   8.671  1.00 87.06    -0.189 NA
BRANCH  33  34
HETATM   34  CBF   D T1201      39.689  -5.114   8.398  1.00 65.85     0.097 C 
HETATM   35  CBH   D T1201      38.844  -4.997   7.143  1.00 75.28     0.025 C 
HETATM   36  CBI   D T1201      38.687  -5.332   9.515  1.00 63.96     0.025 C 
HETATM   37  CBG   D T1201      40.551  -6.370   8.301  1.00 65.02     0.025 C 
ENDBRANCH  33  34
ENDBRANCH  30  33
ENDBRANCH  26  30
ENDBRANCH  23  24
ENDBRANCH   7  23
TORSDOF 11
ENDMDL
MODEL 7
REMARK VINA RESULT:    -7.463      4.176      6.056
REMARK INTER + INTRA:         -13.503
REMARK INTER:                 -11.794
REMARK INTRA:                  -1.709
REMARK UNBOUND:                -1.241
REMARK  11 active torsions:
REMARK  status: ('A' for Active; 'I' for Inactive)
REMARK    1  A    between atoms: NAP_5  and  CAO_6 
REMARK    2  A    between atoms: CAO_6  and  CAN_7 
REMARK    3  A    between atoms: CAN_7  and  OAM_8 
REMARK    4  A    between atoms: OAM_8  and  CAJ_9 
REMARK    5  A    between atoms: CAG_14  and  NAF_15 
REMARK    6  A    between atoms: NAF_15  and  C2_16 
REMARK    7  A    between atoms: C4_22  and  NAW_23 
REMARK    8  A    between atoms: NAW_23  and  CAX_24 
REMARK    9  A    between atoms: CBB_29  and  SBD_30 
REMARK   10  A    between atoms: SBD_30  and  NBE_33 
REMARK   11  A    between atoms: NBE_33  and  CBF_34 
ROOT
HETATM    1  C2    D T1201      37.120  -4.613   8.692  1.00 59.36     0.751 A 
HETATM    2  N3    D T1201      37.675  -4.973   7.546  1.00 55.19    -0.041 NA
HETATM    3  N1    D T1201      37.601  -5.001   9.868  1.00 67.11    -0.058 NA
HETATM    4  C6    D T1201      38.678  -5.770   9.936  1.00 64.11     0.117 A 
HETATM    5  C5    D T1201      39.297  -6.174   8.758  1.00 65.49     0.034 A 
HETATM    6  CAA   D T1201      40.537  -7.067   8.762  1.00 49.68     0.036 C 
HETATM    7  C4    D T1201      38.744  -5.747   7.548  1.00 58.40     0.178 A 
ENDROOT
BRANCH   1   8
HETATM    8  NAF   D T1201      35.951  -3.758   8.707  1.00 62.85    -0.059 NA
BRANCH   8   9
HETATM    9  CAG   D T1201      35.459  -2.926   9.801  1.00 53.07     0.100 A 
HETATM   10  CAL   D T1201      34.301  -3.384  10.392  1.00 60.66     0.022 A 
HETATM   11  CAK   D T1201      33.720  -2.685  11.439  1.00 75.71     0.026 A 
HETATM   12  CAJ   D T1201      34.299  -1.517  11.901  1.00 62.98     0.094 A 
HETATM   13  CAI   D T1201      35.473  -1.047  11.310  1.00 62.12     0.026 A 
HETATM   14  CAH   D T1201      36.057  -1.751  10.260  1.00 51.41     0.022 A 
BRANCH  12  15
HETATM   15  OAM   D T1201      33.673  -0.867  12.969  1.00 60.42    -0.329 OA
BRANCH  15  16
HETATM   16  CAN   D T1201      33.287   0.464  12.743  1.00 90.12     0.184 C 
BRANCH  16  17
HETATM   17  CAO   D T1201      31.866   0.632  13.309  1.00 96.40     0.283 C 
BRANCH  17  18
HETATM   18  NAP   D T1201      31.064  -0.202  12.960  1.00 98.57     0.140 N 
HETATM   19  CAQ   D T1201      29.967  -0.090  13.603  1.00 96.89     0.250 C 
HETATM   20  CAR   D T1201      28.825  -0.670  12.613  1.00 91.95     0.037 C 
HETATM   21  CAS   D T1201      29.191  -0.361  11.444  1.00 99.10     0.037 C 
HETATM   22  CAT   D T1201      30.726  -0.187  11.481  1.00 98.40     0.250 C 
ENDBRANCH  17  18
ENDBRANCH  16  17
ENDBRANCH  15  16
ENDBRANCH  12  15
ENDBRANCH   8   9
ENDBRANCH   1   8
BRANCH   7  23
HETATM   23  NAW   D T1201      39.387  -6.172   6.319  1.00 64.56    -0.227 NA
BRANCH  23  24
HETATM   24  CAX   D T1201      39.961  -5.275   5.347  1.00 60.00     0.084 A 
HETATM   25  CBC   D T1201      41.250  -4.835   5.573  1.00 61.36     0.032 A 
HETATM   26  CBB   D T1201      41.849  -3.976   4.675  1.00 64.43     0.106 A 
HETATM   27  CBA   D T1201      41.158  -3.552   3.563  1.00 52.93     0.013 A 
HETATM   28  CAZ   D T1201      39.860  -3.993   3.328  1.00 65.17     0.002 A 
HETATM   29  CAY   D T1201      39.254  -4.862   4.226  1.00 59.73     0.019 A 
BRANCH  26  30
HETATM   30  SBD   D T1201      43.560  -3.409   4.965  1.00107.25     0.281 S 
HETATM   31  OBJ   D T1201      44.109  -4.229   6.044  1.00 84.83    -0.199 OA
HETATM   32  OBK   D T1201      44.452  -3.823   3.881  1.00 96.98    -0.199 OA
BRANCH  30  33
HETATM   33  NBE   D T1201      43.675  -1.705   5.333  1.00 87.06    -0.189 NA
BRANCH  33  34
HETATM   34  CBF   D T1201      42.738  -0.877   6.120  1.00 65.85     0.097 C 
HETATM   35  CBH   D T1201      41.504  -0.457   5.342  1.00 75.28     0.025 C 
HETATM   36  CBI   D T1201      43.401   0.428   6.520  1.00 63.96     0.025 C 
HETATM   37  CBG   D T1201      42.301  -1.583   7.401  1.00 65.02     0.025 C 
ENDBRANCH  33  34
ENDBRANCH  30  33
ENDBRANCH  26  30
ENDBRANCH  23  24
ENDBRANCH   7  23
TORSDOF 11
ENDMDL
MODEL 8
REMARK VINA RESULT:    -7.363      4.580     11.265
REMARK INTER + INTRA:         -13.338
REMARK INTER:                 -11.560
REMARK INTRA:                  -1.778
REMARK UNBOUND:                -1.241
REMARK  11 active torsions:
REMARK  status: ('A' for Active; 'I' for Inactive)
REMARK    1  A    between atoms: NAP_5  and  CAO_6 
REMARK    2  A    between atoms: CAO_6  and  CAN_7 
REMARK    3  A    between atoms: CAN_7  and  OAM_8 
REMARK    4  A    between atoms: OAM_8  and  CAJ_9 
REMARK    5  A    between atoms: CAG_14  and  NAF_15 
REMARK    6  A    between atoms: NAF_15  and  C2_16 
REMARK    7  A    between atoms: C4_22  and  NAW_23 
REMARK    8  A    between atoms: NAW_23  and  CAX_24 
REMARK    9  A    between atoms: CBB_29  and  SBD_30 
REMARK   10  A    between atoms: SBD_30  and  NBE_33 
REMARK   11  A    between atoms: NBE_33  and  CBF_34 
ROOT
HETATM    1  C2    D T1201      34.133  -3.725   9.295  1.00 59.36     0.751 A 
HETATM    2  N3    D T1201      33.201  -2.801   9.471  1.00 55.19    -0.041 NA
HETATM    3  N1    D T1201      34.026  -4.949   9.800  1.00 67.11    -0.058 NA
HETATM    4  C6    D T1201      32.959  -5.296  10.506  1.00 64.11     0.117 A 
HETATM    5  C5    D T1201      31.952  -4.360  10.717  1.00 65.49     0.034 A 
HETATM    6  CAA   D T1201      30.699  -4.691  11.526  1.00 49.68     0.036 C 
HETATM    7  C4    D T1201      32.119  -3.084  10.173  1.00 58.40     0.178 A 
ENDROOT
BRANCH   1   8
HETATM    8  NAF   D T1201      35.321  -3.432   8.521  1.00 62.85    -0.059 NA
BRANCH   8   9
HETATM    9  CAG   D T1201      36.681  -3.913   8.745  1.00 53.07     0.100 A 
HETATM   10  CAL   D T1201      37.110  -4.858   7.837  1.00 60.66     0.022 A 
HETATM   11  CAK   D T1201      38.379  -5.407   7.936  1.00 75.71     0.026 A 
HETATM   12  CAJ   D T1201      39.231  -5.009   8.951  1.00 62.98     0.094 A 
HETATM   13  CAI   D T1201      38.806  -4.050   9.873  1.00 62.12     0.026 A 
HETATM   14  CAH   D T1201      37.532  -3.498   9.771  1.00 51.41     0.022 A 
BRANCH  12  15
HETATM   15  OAM   D T1201      40.503  -5.588   8.989  1.00 60.42    -0.329 OA
BRANCH  15  16
HETATM   16  CAN   D T1201      40.581  -6.936   8.607  1.00 90.12     0.184 C 
BRANCH  16  17
HETATM   17  CAO   D T1201      41.091  -7.729   9.822  1.00 96.40     0.283 C 
BRANCH  17  18
HETATM   18  NAP   D T1201      41.965  -8.530   9.591  1.00 98.57     0.140 N 
HETATM   19  CAQ   D T1201      42.211  -8.602   8.340  1.00 96.89     0.250 C 
HETATM   20  CAR   D T1201      43.760  -9.059   8.229  1.00 91.95     0.037 C 
HETATM   21  CAS   D T1201      44.350  -8.521   9.208  1.00 99.10     0.037 C 
HETATM   22  CAT   D T1201      43.282  -8.266  10.296  1.00 98.40     0.250 C 
ENDBRANCH  17  18
ENDBRANCH  16  17
ENDBRANCH  15  16
ENDBRANCH  12  15
ENDBRANCH   8   9
ENDBRANCH   1   8
BRANCH   7  23
HETATM   23  NAW   D T1201      31.071  -2.106  10.397  1.00 64.56    -0.227 NA
BRANCH  23  24
HETATM   24  CAX   D T1201      31.059  -1.160  11.485  1.00 60.00     0.084 A 
HETATM   25  CBC   D T1201      32.277  -0.804  12.029  1.00 61.36     0.032 A 
HETATM   26  CBB   D T1201      32.325   0.099  13.071  1.00 64.43     0.106 A 
HETATM   27  CBA   D T1201      31.159   0.632  13.573  1.00 52.93     0.013 A 
HETATM   28  CAZ   D T1201      29.930   0.279  13.028  1.00 65.17     0.002 A 
HETATM   29  CAY   D T1201      29.876  -0.625  11.975  1.00 59.73     0.019 A 
BRANCH  26  30
HETATM   30  SBD   D T1201      33.936   0.584  13.779  1.00107.25     0.281 S 
HETATM   31  OBJ   D T1201      34.478   1.645  12.931  1.00 84.83    -0.199 OA
HETATM   32  OBK   D T1201      33.769   1.341  15.021  1.00 96.98    -0.199 OA
BRANCH  30  33
HETATM   33  NBE   D T1201      35.057  -0.747  13.933  1.00 87.06    -0.189 NA
BRANCH  33  34
HETATM   34  CBF   D T1201      36.145  -1.135  13.012  1.00 65.85     0.097 C 
HETATM   35  CBH   D T1201      35.775  -0.990  11.547  1.00 75.28     0.025 C 
HETATM   36  CBI   D T1201      36.475  -2.606  13.179  1.00 63.96     0.025 C 
HETATM   37  CBG   D T1201      37.422  -0.343  13.282  1.00 65.02     0.025 C 
ENDBRANCH  33  34
ENDBRANCH  30  33
ENDBRANCH  26  30
ENDBRANCH  23  24
ENDBRANCH   7  23
TORSDOF 11
ENDMDL
MODEL 9
REMARK VINA RESULT:    -7.148      1.561      2.003
REMARK INTER + INTRA:         -12.986
REMARK INTER:                 -11.854
REMARK INTRA:                  -1.132
REMARK UNBOUND:                -1.241
REMARK  11 active torsions:
REMARK  status: ('A' for Active; 'I' for Inactive)
REMARK    1  A    between atoms: NAP_5  and  CAO_6 
REMARK    2  A    between atoms: CAO_6  and  CAN_7 
REMARK    3  A    between atoms: CAN_7  and  OAM_8 
REMARK    4  A    between atoms: OAM_8  and  CAJ_9 
REMARK    5  A    between atoms: CAG_14  and  NAF_15 
REMARK    6  A    between atoms: NAF_15  and  C2_16 
REMARK    7  A    between atoms: C4_22  and  NAW_23 
REMARK    8  A    between atoms: NAW_23  and  CAX_24 
REMARK    9  A    between atoms: CBB_29  and  SBD_30 
REMARK   10  A    between atoms: SBD_30  and  NBE_33 
REMARK   11  A    between atoms: NBE_33  and  CBF_34 
ROOT
HETATM    1  C2    D T1201      37.793  -4.616   8.935  1.00 59.36     0.751 A 
HETATM    2  N3    D T1201      37.447  -5.249   7.825  1.00 55.19    -0.041 NA
HETATM    3  N1    D T1201      38.980  -4.036   9.083  1.00 67.11    -0.058 NA
HETATM    4  C6    D T1201      39.872  -4.068   8.104  1.00 64.11     0.117 A 
HETATM    5  C5    D T1201      39.555  -4.720   6.918  1.00 65.49     0.034 A 
HETATM    6  CAA   D T1201      40.538  -4.801   5.752  1.00 49.68     0.036 C 
HETATM    7  C4    D T1201      38.298  -5.322   6.818  1.00 58.40     0.178 A 
ENDROOT
BRANCH   1   8
HETATM    8  NAF   D T1201      36.870  -4.520  10.046  1.00 62.85    -0.059 NA
BRANCH   8   9
HETATM    9  CAG   D T1201      36.445  -3.321  10.763  1.00 53.07     0.100 A 
HETATM   10  CAL   D T1201      35.981  -3.553  12.040  1.00 60.66     0.022 A 
HETATM   11  CAK   D T1201      35.539  -2.504  12.831  1.00 75.71     0.026 A 
HETATM   12  CAJ   D T1201      35.557  -1.210  12.342  1.00 62.98     0.094 A 
HETATM   13  CAI   D T1201      36.028  -0.965  11.051  1.00 62.12     0.026 A 
HETATM   14  CAH   D T1201      36.475  -2.020  10.259  1.00 51.41     0.022 A 
BRANCH  12  15
HETATM   15  OAM   D T1201      35.112  -0.193  13.193  1.00 60.42    -0.329 OA
BRANCH  15  16
HETATM   16  CAN   D T1201      33.999   0.539  12.753  1.00 90.12     0.184 C 
BRANCH  16  17
HETATM   17  CAO   D T1201      32.778  -0.394  12.822  1.00 96.40     0.283 C 
BRANCH  17  18
HETATM   18  NAP   D T1201      32.029  -0.341  11.875  1.00 98.57     0.140 N 
HETATM   19  CAQ   D T1201      31.448  -1.462  11.679  1.00 96.89     0.250 C 
HETATM   20  CAR   D T1201      30.038  -1.100  10.972  1.00 91.95     0.037 C 
HETATM   21  CAS   D T1201      29.672   0.000  11.473  1.00 99.10     0.037 C 
HETATM   22  CAT   D T1201      30.947   0.718  11.971  1.00 98.40     0.250 C 
ENDBRANCH  17  18
ENDBRANCH  16  17
ENDBRANCH  15  16
ENDBRANCH  12  15
ENDBRANCH   8   9
ENDBRANCH   1   8
BRANCH   7  23
HETATM   23  NAW   D T1201      37.967  -6.007   5.583  1.00 64.56    -0.227 NA
BRANCH  23  24
HETATM   24  CAX   D T1201      37.914  -7.441   5.435  1.00 60.00     0.084 A 
HETATM   25  CBC   D T1201      36.692  -8.000   5.119  1.00 61.36     0.032 A 
HETATM   26  CBB   D T1201      36.583  -9.367   4.964  1.00 64.43     0.106 A 
HETATM   27  CBA   D T1201      37.688 -10.169   5.137  1.00 52.93     0.013 A 
HETATM   28  CAZ   D T1201      38.922  -9.611   5.454  1.00 65.17     0.002 A 
HETATM   29  CAY   D T1201      39.039  -8.236   5.605  1.00 59.73     0.019 A 
BRANCH  26  30
HETATM   30  SBD   D T1201      34.971 -10.105   4.527  1.00107.25     0.281 S 
HETATM   31  OBJ   D T1201      35.242 -11.236   3.640  1.00 84.83    -0.199 OA
HETATM   32  OBK   D T1201      34.391 -10.830   5.659  1.00 96.98    -0.199 OA
BRANCH  30  33
HETATM   33  NBE   D T1201      33.861  -8.971   3.798  1.00 87.06    -0.189 NA
BRANCH  33  34
HETATM   34  CBF   D T1201      32.384  -8.983   3.845  1.00 65.85     0.097 C 
HETATM   35  CBH   D T1201      31.823  -8.807   5.243  1.00 75.28     0.025 C 
HETATM   36  CBI   D T1201      31.856 -10.329   3.386  1.00 63.96     0.025 C 
HETATM   37  CBG   D T1201      31.783  -7.918   2.931  1.00 65.02     0.025 C 
ENDBRANCH  33  34
ENDBRANCH  30  33
ENDBRANCH  26  30
ENDBRANCH  23  24
ENDBRANCH   7  23
TORSDOF 11
ENDMDL
