MODEL 1
REMARK VINA RESULT:      -8.2      0.000      0.000
REMARK  19 active torsions:
REMARK  status: ('A' for Active; 'I' for Inactive)
REMARK    1  A    between atoms: C2_2  and  C6_6 
REMARK    2  A    between atoms: C6_6  and  O7_7 
REMARK    3  A    between atoms: O7_7  and  C10_8 
REMARK       I    between atoms: C10_8  and  N11_10 
REMARK    4  A    between atoms: N11_10  and  C12_11 
REMARK    5  A    between atoms: C12_11  and  C13_12 
REMARK    6  A    between atoms: C12_11  and  C26_15 
REMARK    7  A    between atoms: C13_12  and  C14_13 
REMARK    8  A    between atoms: C13_12  and  O41_22 
REMARK    9  A    between atoms: C14_13  and  C15_14 
REMARK   10  A    between atoms: C15_14  and  C44_23 
REMARK   11  A    between atoms: C15_14  and  N58_30 
REMARK   12  A    between atoms: C26_15  and  C28_16 
REMARK   13  A    between atoms: C44_23  and  C45_24 
REMARK       I    between atoms: N58_30  and  C18_33 
REMARK   14  A    between atoms: N20_31  and  C19_32 
REMARK       I    between atoms: N20_31  and  C21_38 
REMARK   15  A    between atoms: C19_32  and  C18_33 
REMARK   16  A    between atoms: C19_32  and  C62_35 
REMARK       I    between atoms: C21_38  and  N74_39 
REMARK   17  A    between atoms: N74_39  and  C75_40 
REMARK   18  A    between atoms: C75_40  and  C77_42 
REMARK   19  A    between atoms: C82_45  and  C85_47 
ROOT
HETATM    1  C15   D T 401      14.087  16.796 -11.961  1.00 55.13     0.091 C 
ENDROOT
BRANCH   1   2
HETATM    2  C14   D T 401      12.996  16.622 -10.910  1.00 56.49     0.059 C 
BRANCH   2   3
HETATM    3  C13   D T 401      11.585  16.681 -11.474  1.00 52.85     0.143 C 
BRANCH   3   4
HETATM    4  C12   D T 401      10.966  15.312 -11.661  1.00 51.97     0.119 C 
BRANCH   4   5
HETATM    5  N11   D T 401      10.570  14.742 -10.391  1.00 54.53    -0.329 N 
HETATM    6  C10   D T 401      11.190  13.705  -9.850  1.00 57.55     0.361 C 
HETATM    7  O24   D T 401      12.130  13.126 -10.370  1.00 50.79    -0.238 OA
HETATM    8  H11   D T 401       9.788  15.159  -9.908  1.00 65.46     0.165 HD
BRANCH   6   9
HETATM    9  O7    D T 401      10.697  13.251  -8.574  1.00 56.36    -0.299 OA
BRANCH   9  10
HETATM   10  C6    D T 401      11.604  13.207  -7.536  1.00 61.93     0.228 C 
BRANCH  10  11
HETATM   11  C2    D T 401      10.895  12.884  -6.264  1.00 76.84     0.022 A 
HETATM   12  C1    D T 401      10.881  13.425  -4.989  1.00 77.89     0.128 A 
HETATM   13  N5    D T 401      10.036  12.739  -4.180  1.00 89.70    -0.282 NA
HETATM   14  C4    D T 401       9.399  11.699  -4.778  1.00 85.46     0.208 A 
HETATM   15  S3    D T 401       9.860  11.527  -6.448  1.00 90.97    -0.100 SA
ENDBRANCH  10  11
ENDBRANCH   9  10
ENDBRANCH   6   9
ENDBRANCH   4   5
BRANCH   4  16
HETATM   16  C26   D T 401       9.724  15.402 -12.549  1.00 53.54     0.066 C 
BRANCH  16  17
HETATM   17  C28   D T 401      10.002  14.572 -13.765  1.00 51.74    -0.056 A 
HETATM   18  C31   D T 401      10.738  13.413 -13.627  1.00 56.62     0.007 A 
HETATM   19  C32   D T 401      10.997  12.623 -14.734  1.00 61.24     0.001 A 
HETATM   20  C33   D T 401      10.498  12.986 -15.975  1.00 57.56     0.000 A 
HETATM   21  C34   D T 401       9.746  14.149 -16.099  1.00 57.29     0.001 A 
HETATM   22  C35   D T 401       9.491  14.943 -14.986  1.00 54.64     0.007 A 
ENDBRANCH  16  17
ENDBRANCH   4  16
ENDBRANCH   3   4
BRANCH   3  23
HETATM   23  O41   D T 401      10.808  17.449 -10.529  1.00 46.89    -0.393 OA
HETATM   24  HO4   D T 401      10.017  17.794 -10.965  1.00 56.30     0.210 HD
ENDBRANCH   3  23
ENDBRANCH   2   3
ENDBRANCH   1   2
BRANCH   1  25
HETATM   25  C44   D T 401      14.754  15.430 -12.065  1.00 57.31     0.063 C 
BRANCH  25  26
HETATM   26  C45   D T 401      14.510  14.865 -13.427  1.00 62.23    -0.056 A 
HETATM   27  C48   D T 401      14.980  13.602 -13.735  1.00 68.40     0.007 A 
HETATM   28  C49   D T 401      14.743  13.076 -15.000  1.00 68.89     0.001 A 
HETATM   29  C50   D T 401      14.039  13.813 -15.945  1.00 70.95     0.000 A 
HETATM   30  C51   D T 401      13.569  15.080 -15.624  1.00 69.71     0.001 A 
HETATM   31  C52   D T 401      13.803  15.608 -14.358  1.00 63.86     0.007 A 
ENDBRANCH  25  26
ENDBRANCH   1  25
BRANCH   1  32
HETATM   32  N58   D T 401      15.053  17.807 -11.593  1.00 57.14    -0.354 N 
HETATM   33  C18   D T 401      15.490  18.625 -12.547  1.00 63.33     0.241 C 
HETATM   34  O61   D T 401      15.035  18.554 -13.674  1.00 56.06    -0.271 OA
HETATM   35  H58   D T 401      15.377  17.882 -10.640  1.00 68.60     0.162 HD
BRANCH  33  36
HETATM   36  C19   D T 401      16.555  19.619 -12.231  1.00 62.97     0.181 C 
BRANCH  36  37
HETATM   37  N20   D T 401      17.236  19.476 -10.941  1.00 62.86    -0.329 N 
HETATM   38  C21   D T 401      16.981  20.264  -9.921  1.00 67.85     0.319 C 
HETATM   39  N74   D T 401      17.254  19.847  -8.701  1.00 70.47    -0.333 N 
HETATM   40  O76   D T 401      16.460  21.344 -10.086  1.00 58.01    -0.247 OA
HETATM   41  C95   D T 401      18.153  18.765  -8.370  1.00 68.34     0.154 C 
HETATM   42  H20   D T 401      17.923  18.742 -10.845  1.00 75.47     0.165 HD
BRANCH  39  43
HETATM   43  C75   D T 401      16.620  20.477  -7.546  1.00 68.98     0.183 C 
BRANCH  43  44
HETATM   44  C77   D T 401      15.321  19.746  -7.396  1.00 78.58     0.047 A 
HETATM   45  C80   D T 401      14.171  20.386  -6.971  1.00 85.18     0.122 A 
HETATM   46  S81   D T 401      12.830  19.301  -6.869  1.00 94.63    -0.102 SA
HETATM   47  C82   D T 401      13.899  18.053  -7.387  1.00 83.84     0.075 A 
HETATM   48  N83   D T 401      15.161  18.436  -7.609  1.00 84.20    -0.252 NA
BRANCH  47  49
HETATM   49  C85   D T 401      13.272  16.740  -7.514  1.00 85.08     0.036 C 
HETATM   50  C86   D T 401      14.366  15.755  -7.650  1.00 89.40     0.016 C 
HETATM   51  C90   D T 401      12.294  16.547  -6.383  1.00 90.17     0.016 C 
ENDBRANCH  47  49
ENDBRANCH  43  44
ENDBRANCH  39  43
ENDBRANCH  36  37
BRANCH  36  52
HETATM   52  C62   D T 401      17.701  19.398 -13.224  1.00 69.84     0.009 C 
HETATM   53  C64   D T 401      18.683  20.553 -13.258  1.00 64.64     0.012 C 
HETATM   54  C68   D T 401      18.441  18.101 -12.909  1.00 69.88     0.012 C 
ENDBRANCH  36  52
ENDBRANCH  33  36
ENDBRANCH   1  32
TORSDOF 19
ENDMDL
MODEL 2
REMARK VINA RESULT:      -8.0      2.467      7.568
REMARK  19 active torsions:
REMARK  status: ('A' for Active; 'I' for Inactive)
REMARK    1  A    between atoms: C2_2  and  C6_6 
REMARK    2  A    between atoms: C6_6  and  O7_7 
REMARK    3  A    between atoms: O7_7  and  C10_8 
REMARK       I    between atoms: C10_8  and  N11_10 
REMARK    4  A    between atoms: N11_10  and  C12_11 
REMARK    5  A    between atoms: C12_11  and  C13_12 
REMARK    6  A    between atoms: C12_11  and  C26_15 
REMARK    7  A    between atoms: C13_12  and  C14_13 
REMARK    8  A    between atoms: C13_12  and  O41_22 
REMARK    9  A    between atoms: C14_13  and  C15_14 
REMARK   10  A    between atoms: C15_14  and  C44_23 
REMARK   11  A    between atoms: C15_14  and  N58_30 
REMARK   12  A    between atoms: C26_15  and  C28_16 
REMARK   13  A    between atoms: C44_23  and  C45_24 
REMARK       I    between atoms: N58_30  and  C18_33 
REMARK   14  A    between atoms: N20_31  and  C19_32 
REMARK       I    between atoms: N20_31  and  C21_38 
REMARK   15  A    between atoms: C19_32  and  C18_33 
REMARK   16  A    between atoms: C19_32  and  C62_35 
REMARK       I    between atoms: C21_38  and  N74_39 
REMARK   17  A    between atoms: N74_39  and  C75_40 
REMARK   18  A    between atoms: C75_40  and  C77_42 
REMARK   19  A    between atoms: C82_45  and  C85_47 
ROOT
HETATM    1  C15   D T 401      11.280  15.796 -11.840  1.00 55.13     0.091 C 
ENDROOT
BRANCH   1   2
HETATM    2  C14   D T 401      11.144  16.389 -10.441  1.00 56.49     0.059 C 
BRANCH   2   3
HETATM    3  C13   D T 401      11.885  17.705 -10.257  1.00 52.85     0.143 C 
BRANCH   3   4
HETATM    4  C12   D T 401      13.268  17.526  -9.667  1.00 51.97     0.119 C 
BRANCH   4   5
HETATM    5  N11   D T 401      14.230  18.384 -10.325  1.00 54.53    -0.329 N 
HETATM    6  C10   D T 401      15.417  17.952 -10.721  1.00 57.55     0.361 C 
HETATM    7  O24   D T 401      15.817  16.811 -10.556  1.00 50.79    -0.238 OA
HETATM    8  H11   D T 401      13.975  19.348 -10.482  1.00 65.46     0.165 HD
BRANCH   6   9
HETATM    9  O7    D T 401      16.268  18.913 -11.376  1.00 56.36    -0.299 OA
BRANCH   9  10
HETATM   10  C6    D T 401      17.538  19.071 -10.863  1.00 61.93     0.228 C 
BRANCH  10  11
HETATM   11  C2    D T 401      17.487  19.956  -9.663  1.00 76.84     0.022 A 
HETATM   12  C1    D T 401      16.886  21.167  -9.367  1.00 77.89     0.128 A 
HETATM   13  N5    D T 401      17.158  21.546  -8.093  1.00 89.70    -0.282 NA
HETATM   14  C4    D T 401      17.937  20.678  -7.399  1.00 85.46     0.208 A 
HETATM   15  S3    D T 401      18.388  19.296  -8.358  1.00 90.97    -0.100 SA
ENDBRANCH  10  11
ENDBRANCH   9  10
ENDBRANCH   6   9
ENDBRANCH   4   5
BRANCH   4  16
HETATM   16  C26   D T 401      13.264  17.872  -8.177  1.00 53.54     0.066 C 
BRANCH  16  17
HETATM   17  C28   D T 401      13.126  16.578  -7.434  1.00 51.74    -0.056 A 
HETATM   18  C31   D T 401      14.089  15.604  -7.607  1.00 56.62     0.007 A 
HETATM   19  C32   D T 401      13.990  14.406  -6.921  1.00 61.24     0.001 A 
HETATM   20  C33   D T 401      12.937  14.196  -6.044  1.00 57.56     0.000 A 
HETATM   21  C34   D T 401      11.982  15.190  -5.867  1.00 57.29     0.001 A 
HETATM   22  C35   D T 401      12.080  16.391  -6.561  1.00 54.64     0.007 A 
ENDBRANCH  16  17
ENDBRANCH   4  16
ENDBRANCH   3   4
BRANCH   3  23
HETATM   23  O41   D T 401      11.981  18.297 -11.571  1.00 46.89    -0.393 OA
HETATM   24  HO4   D T 401      11.323  17.896 -12.155  1.00 56.30     0.210 HD
ENDBRANCH   3  23
ENDBRANCH   2   3
ENDBRANCH   1   2
BRANCH   1  25
HETATM   25  C44   D T 401      10.006  14.987 -12.049  1.00 57.31     0.063 C 
BRANCH  25  26
HETATM   26  C45   D T 401       9.811  14.746 -13.512  1.00 62.23    -0.056 A 
HETATM   27  C48   D T 401       8.979  15.580 -14.235  1.00 68.40     0.007 A 
HETATM   28  C49   D T 401       8.807  15.358 -15.596  1.00 68.89     0.001 A 
HETATM   29  C50   D T 401       9.466  14.307 -16.223  1.00 70.95     0.000 A 
HETATM   30  C51   D T 401      10.301  13.476 -15.488  1.00 69.71     0.001 A 
HETATM   31  C52   D T 401      10.477  13.698 -14.126  1.00 63.86     0.007 A 
ENDBRANCH  25  26
ENDBRANCH   1  25
BRANCH   1  32
HETATM   32  N58   D T 401      12.446  14.951 -11.971  1.00 57.14    -0.354 N 
HETATM   33  C18   D T 401      13.432  15.371 -12.760  1.00 63.33     0.241 C 
HETATM   34  O61   D T 401      13.369  16.462 -13.295  1.00 56.06    -0.271 OA
HETATM   35  H58   D T 401      12.501  14.074 -11.475  1.00 68.60     0.162 HD
BRANCH  33  36
HETATM   36  C19   D T 401      14.610  14.489 -12.996  1.00 62.97     0.181 C 
BRANCH  36  37
HETATM   37  N20   D T 401      14.359  13.045 -13.045  1.00 62.86    -0.329 N 
HETATM   38  C21   D T 401      14.941  12.204 -12.221  1.00 67.85     0.319 C 
HETATM   39  N74   D T 401      14.380  11.032 -11.995  1.00 70.47    -0.333 N 
HETATM   40  O76   D T 401      15.957  12.508 -11.637  1.00 58.01    -0.247 OA
HETATM   41  C95   D T 401      13.386  10.406 -12.836  1.00 68.34     0.154 C 
HETATM   42  H20   D T 401      13.714  12.697 -13.741  1.00 75.47     0.165 HD
BRANCH  39  43
HETATM   43  C75   D T 401      14.736  10.260 -10.807  1.00 68.98     0.183 C 
BRANCH  43  44
HETATM   44  C77   D T 401      13.517  10.335  -9.940  1.00 78.58     0.047 A 
HETATM   45  C80   D T 401      12.763   9.213  -9.648  1.00 85.18     0.122 A 
HETATM   46  S81   D T 401      11.406   9.592  -8.646  1.00 94.63    -0.102 SA
HETATM   47  C82   D T 401      11.926  11.234  -8.697  1.00 83.84     0.075 A 
HETATM   48  N83   D T 401      13.029  11.464  -9.417  1.00 84.20    -0.252 NA
BRANCH  47  49
HETATM   49  C85   D T 401      11.082  12.154  -7.937  1.00 85.08     0.036 C 
HETATM   50  C86   D T 401      10.535  13.129  -8.905  1.00 89.40     0.016 C 
HETATM   51  C90   D T 401      10.101  11.360  -7.113  1.00 90.17     0.016 C 
ENDBRANCH  47  49
ENDBRANCH  43  44
ENDBRANCH  39  43
ENDBRANCH  36  37
BRANCH  36  52
HETATM   52  C62   D T 401      15.120  14.772 -14.414  1.00 69.84     0.009 C 
HETATM   53  C64   D T 401      16.608  14.521 -14.566  1.00 64.64     0.012 C 
HETATM   54  C68   D T 401      14.350  13.943 -15.437  1.00 69.88     0.012 C 
ENDBRANCH  36  52
ENDBRANCH  33  36
ENDBRANCH   1  32
TORSDOF 19
ENDMDL
MODEL 3
REMARK VINA RESULT:      -7.9      3.078      6.731
REMARK  19 active torsions:
REMARK  status: ('A' for Active; 'I' for Inactive)
REMARK    1  A    between atoms: C2_2  and  C6_6 
REMARK    2  A    between atoms: C6_6  and  O7_7 
REMARK    3  A    between atoms: O7_7  and  C10_8 
REMARK       I    between atoms: C10_8  and  N11_10 
REMARK    4  A    between atoms: N11_10  and  C12_11 
REMARK    5  A    between atoms: C12_11  and  C13_12 
REMARK    6  A    between atoms: C12_11  and  C26_15 
REMARK    7  A    between atoms: C13_12  and  C14_13 
REMARK    8  A    between atoms: C13_12  and  O41_22 
REMARK    9  A    between atoms: C14_13  and  C15_14 
REMARK   10  A    between atoms: C15_14  and  C44_23 
REMARK   11  A    between atoms: C15_14  and  N58_30 
REMARK   12  A    between atoms: C26_15  and  C28_16 
REMARK   13  A    between atoms: C44_23  and  C45_24 
REMARK       I    between atoms: N58_30  and  C18_33 
REMARK   14  A    between atoms: N20_31  and  C19_32 
REMARK       I    between atoms: N20_31  and  C21_38 
REMARK   15  A    between atoms: C19_32  and  C18_33 
REMARK   16  A    between atoms: C19_32  and  C62_35 
REMARK       I    between atoms: C21_38  and  N74_39 
REMARK   17  A    between atoms: N74_39  and  C75_40 
REMARK   18  A    between atoms: C75_40  and  C77_42 
REMARK   19  A    between atoms: C82_45  and  C85_47 
ROOT
HETATM    1  C15   D T 401      13.521  17.660  -8.579  1.00 55.13     0.091 C 
ENDROOT
BRANCH   1   2
HETATM    2  C14   D T 401      12.526  17.878  -9.713  1.00 56.49     0.059 C 
BRANCH   2   3
HETATM    3  C13   D T 401      12.986  17.318 -11.051  1.00 52.85     0.143 C 
BRANCH   3   4
HETATM    4  C12   D T 401      12.403  15.953 -11.351  1.00 51.97     0.119 C 
BRANCH   4   5
HETATM    5  N11   D T 401      12.205  15.773 -12.773  1.00 54.53    -0.329 N 
HETATM    6  C10   D T 401      11.073  15.313 -13.282  1.00 57.55     0.361 C 
HETATM    7  O24   D T 401      10.108  14.984 -12.612  1.00 50.79    -0.238 OA
HETATM    8  H11   D T 401      12.967  16.009 -13.391  1.00 65.46     0.165 HD
BRANCH   6   9
HETATM    9  O7    D T 401      11.010  15.198 -14.718  1.00 56.36    -0.299 OA
BRANCH   9  10
HETATM   10  C6    D T 401      12.140  14.732 -15.355  1.00 61.93     0.228 C 
BRANCH  10  11
HETATM   11  C2    D T 401      11.931  13.316 -15.776  1.00 76.84     0.022 A 
HETATM   12  C1    D T 401      10.837  12.472 -15.853  1.00 77.89     0.128 A 
HETATM   13  N5    D T 401      11.198  11.250 -16.319  1.00 89.70    -0.282 NA
HETATM   14  C4    D T 401      12.519  11.121 -16.605  1.00 85.46     0.208 A 
HETATM   15  S3    D T 401      13.401  12.587 -16.281  1.00 90.97    -0.100 SA
ENDBRANCH  10  11
ENDBRANCH   9  10
ENDBRANCH   6   9
ENDBRANCH   4   5
BRANCH   4  16
HETATM   16  C26   D T 401      13.341  14.849 -10.859  1.00 53.54     0.066 C 
BRANCH  16  17
HETATM   17  C28   D T 401      12.495  13.869 -10.104  1.00 51.74    -0.056 A 
HETATM   18  C31   D T 401      13.010  12.619  -9.828  1.00 56.62     0.007 A 
HETATM   19  C32   D T 401      12.253  11.700  -9.122  1.00 61.24     0.001 A 
HETATM   20  C33   D T 401      10.988  12.047  -8.673  1.00 57.56     0.000 A 
HETATM   21  C34   D T 401      10.486  13.314  -8.944  1.00 57.29     0.001 A 
HETATM   22  C35   D T 401      11.247  14.233  -9.659  1.00 54.64     0.007 A 
ENDBRANCH  16  17
ENDBRANCH   4  16
ENDBRANCH   3   4
BRANCH   3  23
HETATM   23  O41   D T 401      12.558  18.268 -12.051  1.00 46.89    -0.393 OA
HETATM   24  HO4   D T 401      13.225  18.324 -12.749  1.00 56.30     0.210 HD
ENDBRANCH   3  23
ENDBRANCH   2   3
ENDBRANCH   1   2
BRANCH   1  25
HETATM   25  C44   D T 401      12.676  17.648  -7.311  1.00 57.31     0.063 C 
BRANCH  25  26
HETATM   26  C45   D T 401      12.584  16.248  -6.794  1.00 62.23    -0.056 A 
HETATM   27  C48   D T 401      13.652  15.387  -6.963  1.00 68.40     0.007 A 
HETATM   28  C49   D T 401      13.566  14.090  -6.473  1.00 68.89     0.001 A 
HETATM   29  C50   D T 401      12.416  13.663  -5.817  1.00 70.95     0.000 A 
HETATM   30  C51   D T 401      11.350  14.538  -5.650  1.00 69.71     0.001 A 
HETATM   31  C52   D T 401      11.435  15.838  -6.138  1.00 63.86     0.007 A 
ENDBRANCH  25  26
ENDBRANCH   1  25
BRANCH   1  32
HETATM   32  N58   D T 401      14.522  18.701  -8.514  1.00 57.14    -0.354 N 
HETATM   33  C18   D T 401      15.789  18.335  -8.335  1.00 63.33     0.241 C 
HETATM   34  O61   D T 401      16.088  17.156  -8.296  1.00 56.06    -0.271 OA
HETATM   35  H58   D T 401      14.257  19.671  -8.602  1.00 68.60     0.162 HD
BRANCH  33  36
HETATM   36  C19   D T 401      16.839  19.380  -8.169  1.00 62.97     0.181 C 
BRANCH  36  37
HETATM   37  N20   D T 401      17.603  19.750  -9.364  1.00 62.86    -0.329 N 
HETATM   38  C21   D T 401      18.619  19.039  -9.795  1.00 67.85     0.319 C 
HETATM   39  N74   D T 401      18.978  19.131 -11.060  1.00 70.47    -0.333 N 
HETATM   40  O76   D T 401      19.197  18.271  -9.059  1.00 58.01    -0.247 OA
HETATM   41  C95   D T 401      18.622  20.210 -11.953  1.00 68.34     0.154 C 
HETATM   42  H20   D T 401      17.329  20.584  -9.865  1.00 75.47     0.165 HD
BRANCH  39  43
HETATM   43  C75   D T 401      19.790  18.084 -11.675  1.00 68.98     0.183 C 
BRANCH  43  44
HETATM   44  C77   D T 401      18.867  17.431 -12.657  1.00 78.58     0.047 A 
HETATM   45  C80   D T 401      19.285  17.083 -13.929  1.00 85.18     0.122 A 
HETATM   46  S81   D T 401      18.011  16.367 -14.852  1.00 94.63    -0.102 SA
HETATM   47  C82   D T 401      16.993  16.594 -13.481  1.00 83.84     0.075 A 
HETATM   48  N83   D T 401      17.577  17.168 -12.423  1.00 84.20    -0.252 NA
BRANCH  47  49
HETATM   49  C85   D T 401      15.624  16.121 -13.665  1.00 85.08     0.036 C 
HETATM   50  C86   D T 401      15.010  16.983 -14.699  1.00 89.40     0.016 C 
HETATM   51  C90   D T 401      15.642  14.635 -13.916  1.00 90.17     0.016 C 
ENDBRANCH  47  49
ENDBRANCH  43  44
ENDBRANCH  39  43
ENDBRANCH  36  37
BRANCH  36  52
HETATM   52  C62   D T 401      16.130  20.694  -7.823  1.00 69.84     0.009 C 
HETATM   53  C64   D T 401      16.482  21.209  -6.441  1.00 64.64     0.012 C 
HETATM   54  C68   D T 401      16.443  21.763  -8.866  1.00 69.88     0.012 C 
ENDBRANCH  36  52
ENDBRANCH  33  36
ENDBRANCH   1  32
TORSDOF 19
ENDMDL
MODEL 4
REMARK VINA RESULT:      -7.7      2.317      4.319
REMARK  19 active torsions:
REMARK  status: ('A' for Active; 'I' for Inactive)
REMARK    1  A    between atoms: C2_2  and  C6_6 
REMARK    2  A    between atoms: C6_6  and  O7_7 
REMARK    3  A    between atoms: O7_7  and  C10_8 
REMARK       I    between atoms: C10_8  and  N11_10 
REMARK    4  A    between atoms: N11_10  and  C12_11 
REMARK    5  A    between atoms: C12_11  and  C13_12 
REMARK    6  A    between atoms: C12_11  and  C26_15 
REMARK    7  A    between atoms: C13_12  and  C14_13 
REMARK    8  A    between atoms: C13_12  and  O41_22 
REMARK    9  A    between atoms: C14_13  and  C15_14 
REMARK   10  A    between atoms: C15_14  and  C44_23 
REMARK   11  A    between atoms: C15_14  and  N58_30 
REMARK   12  A    between atoms: C26_15  and  C28_16 
REMARK   13  A    between atoms: C44_23  and  C45_24 
REMARK       I    between atoms: N58_30  and  C18_33 
REMARK   14  A    between atoms: N20_31  and  C19_32 
REMARK       I    between atoms: N20_31  and  C21_38 
REMARK   15  A    between atoms: C19_32  and  C18_33 
REMARK   16  A    between atoms: C19_32  and  C62_35 
REMARK       I    between atoms: C21_38  and  N74_39 
REMARK   17  A    between atoms: N74_39  and  C75_40 
REMARK   18  A    between atoms: C75_40  and  C77_42 
REMARK   19  A    between atoms: C82_45  and  C85_47 
ROOT
HETATM    1  C15   D T 401      13.580  15.844 -10.519  1.00 55.13     0.091 C 
ENDROOT
BRANCH   1   2
HETATM    2  C14   D T 401      12.549  14.778 -10.162  1.00 56.49     0.059 C 
BRANCH   2   3
HETATM    3  C13   D T 401      11.118  15.175 -10.489  1.00 52.85     0.143 C 
BRANCH   3   4
HETATM    4  C12   D T 401      10.539  14.395 -11.650  1.00 51.97     0.119 C 
BRANCH   4   5
HETATM    5  N11   D T 401       9.819  13.228 -11.186  1.00 54.53    -0.329 N 
HETATM    6  C10   D T 401      10.345  12.014 -11.201  1.00 57.55     0.361 C 
HETATM    7  O24   D T 401      11.464  11.760 -11.617  1.00 50.79    -0.238 OA
HETATM    8  H11   D T 401       8.879  13.358 -10.841  1.00 65.46     0.165 HD
BRANCH   6   9
HETATM    9  O7    D T 401       9.519  10.946 -10.695  1.00 56.36    -0.299 OA
BRANCH   9  10
HETATM   10  C6    D T 401       8.546  11.290  -9.781  1.00 61.93     0.228 C 
BRANCH  10  11
HETATM   11  C2    D T 401       8.644  10.402  -8.586  1.00 76.84     0.022 A 
HETATM   12  C1    D T 401       9.484   9.371  -8.202  1.00 77.89     0.128 A 
HETATM   13  N5    D T 401       9.134   8.889  -6.983  1.00 89.70    -0.282 NA
HETATM   14  C4    D T 401       8.067   9.506  -6.414  1.00 85.46     0.208 A 
HETATM   15  S3    D T 401       7.426  10.765  -7.432  1.00 90.97    -0.100 SA
ENDBRANCH  10  11
ENDBRANCH   9  10
ENDBRANCH   6   9
ENDBRANCH   4   5
BRANCH   4  16
HETATM   16  C26   D T 401       9.567  15.265 -12.449  1.00 53.54     0.066 C 
BRANCH  16  17
HETATM   17  C28   D T 401       9.624  14.783 -13.867  1.00 51.74    -0.056 A 
HETATM   18  C31   D T 401       8.841  15.410 -14.816  1.00 56.62     0.007 A 
HETATM   19  C32   D T 401       8.885  14.991 -16.134  1.00 61.24     0.001 A 
HETATM   20  C33   D T 401       9.732  13.958 -16.504  1.00 57.56     0.000 A 
HETATM   21  C34   D T 401      10.526  13.344 -15.542  1.00 57.29     0.001 A 
HETATM   22  C35   D T 401      10.476  13.763 -14.217  1.00 54.64     0.007 A 
ENDBRANCH  16  17
ENDBRANCH   4  16
ENDBRANCH   3   4
BRANCH   3  23
HETATM   23  O41   D T 401      10.349  14.922  -9.292  1.00 46.89    -0.393 OA
HETATM   24  HO4   D T 401      10.840  15.238  -8.520  1.00 56.30     0.210 HD
ENDBRANCH   3  23
ENDBRANCH   2   3
ENDBRANCH   1   2
BRANCH   1  25
HETATM   25  C44   D T 401      14.674  15.096 -11.271  1.00 57.31     0.063 C 
BRANCH  25  26
HETATM   26  C45   D T 401      14.328  15.048 -12.724  1.00 62.23    -0.056 A 
HETATM   27  C48   D T 401      13.624  16.093 -13.292  1.00 68.40     0.007 A 
HETATM   28  C49   D T 401      13.312  16.050 -14.646  1.00 68.89     0.001 A 
HETATM   29  C50   D T 401      13.706  14.965 -15.421  1.00 70.95     0.000 A 
HETATM   30  C51   D T 401      14.416  13.921 -14.841  1.00 69.71     0.001 A 
HETATM   31  C52   D T 401      14.731  13.964 -13.486  1.00 63.86     0.007 A 
ENDBRANCH  25  26
ENDBRANCH   1  25
BRANCH   1  32
HETATM   32  N58   D T 401      14.123  16.500  -9.351  1.00 57.14    -0.354 N 
HETATM   33  C18   D T 401      13.515  17.601  -8.917  1.00 63.33     0.241 C 
HETATM   34  O61   D T 401      12.498  17.994  -9.457  1.00 56.06    -0.271 OA
HETATM   35  H58   D T 401      14.938  16.126  -8.886  1.00 68.60     0.162 HD
BRANCH  33  36
HETATM   36  C19   D T 401      14.097  18.361  -7.774  1.00 62.97     0.181 C 
BRANCH  36  37
HETATM   37  N20   D T 401      15.060  19.417  -8.100  1.00 62.86    -0.329 N 
HETATM   38  C21   D T 401      16.311  19.156  -8.405  1.00 67.85     0.319 C 
HETATM   39  N74   D T 401      17.000  20.036  -9.105  1.00 70.47    -0.333 N 
HETATM   40  O76   D T 401      16.821  18.105  -8.090  1.00 58.01    -0.247 OA
HETATM   41  C95   D T 401      16.657  21.431  -9.262  1.00 68.34     0.154 C 
HETATM   42  H20   D T 401      14.739  20.374  -8.087  1.00 75.47     0.165 HD
BRANCH  39  43
HETATM   43  C75   D T 401      18.210  19.630  -9.815  1.00 68.98     0.183 C 
BRANCH  43  44
HETATM   44  C77   D T 401      17.701  18.956 -11.052  1.00 78.58     0.047 A 
HETATM   45  C80   D T 401      16.716  19.525 -11.838  1.00 85.18     0.122 A 
HETATM   46  S81   D T 401      16.309  18.523 -13.187  1.00 94.63    -0.102 SA
HETATM   47  C82   D T 401      17.473  17.396 -12.603  1.00 83.84     0.075 A 
HETATM   48  N83   D T 401      18.105  17.756 -11.480  1.00 84.20    -0.252 NA
BRANCH  47  49
HETATM   49  C85   D T 401      17.611  16.195 -13.423  1.00 85.08     0.036 C 
HETATM   50  C86   D T 401      17.121  16.544 -14.775  1.00 89.40     0.016 C 
HETATM   51  C90   D T 401      19.020  15.672 -13.304  1.00 90.17     0.016 C 
ENDBRANCH  47  49
ENDBRANCH  43  44
ENDBRANCH  39  43
ENDBRANCH  36  37
BRANCH  36  52
HETATM   52  C62   D T 401      12.960  19.155  -7.123  1.00 69.84     0.009 C 
HETATM   53  C64   D T 401      12.497  18.554  -5.811  1.00 64.64     0.012 C 
HETATM   54  C68   D T 401      13.376  20.607  -6.907  1.00 69.88     0.012 C 
ENDBRANCH  36  52
ENDBRANCH  33  36
ENDBRANCH   1  32
TORSDOF 19
ENDMDL
MODEL 5
REMARK VINA RESULT:      -7.7      2.315      5.505
REMARK  19 active torsions:
REMARK  status: ('A' for Active; 'I' for Inactive)
REMARK    1  A    between atoms: C2_2  and  C6_6 
REMARK    2  A    between atoms: C6_6  and  O7_7 
REMARK    3  A    between atoms: O7_7  and  C10_8 
REMARK       I    between atoms: C10_8  and  N11_10 
REMARK    4  A    between atoms: N11_10  and  C12_11 
REMARK    5  A    between atoms: C12_11  and  C13_12 
REMARK    6  A    between atoms: C12_11  and  C26_15 
REMARK    7  A    between atoms: C13_12  and  C14_13 
REMARK    8  A    between atoms: C13_12  and  O41_22 
REMARK    9  A    between atoms: C14_13  and  C15_14 
REMARK   10  A    between atoms: C15_14  and  C44_23 
REMARK   11  A    between atoms: C15_14  and  N58_30 
REMARK   12  A    between atoms: C26_15  and  C28_16 
REMARK   13  A    between atoms: C44_23  and  C45_24 
REMARK       I    between atoms: N58_30  and  C18_33 
REMARK   14  A    between atoms: N20_31  and  C19_32 
REMARK       I    between atoms: N20_31  and  C21_38 
REMARK   15  A    between atoms: C19_32  and  C18_33 
REMARK   16  A    between atoms: C19_32  and  C62_35 
REMARK       I    between atoms: C21_38  and  N74_39 
REMARK   17  A    between atoms: N74_39  and  C75_40 
REMARK   18  A    between atoms: C75_40  and  C77_42 
REMARK   19  A    between atoms: C82_45  and  C85_47 
ROOT
HETATM    1  C15   D T 401      12.013  15.558 -12.027  1.00 55.13     0.091 C 
ENDROOT
BRANCH   1   2
HETATM    2  C14   D T 401      12.285  15.320 -10.545  1.00 56.49     0.059 C 
BRANCH   2   3
HETATM    3  C13   D T 401      11.230  14.467  -9.856  1.00 52.85     0.143 C 
BRANCH   3   4
HETATM    4  C12   D T 401      11.820  13.478  -8.875  1.00 51.97     0.119 C 
BRANCH   4   5
HETATM    5  N11   D T 401      13.091  12.972  -9.346  1.00 54.53    -0.329 N 
HETATM    6  C10   D T 401      13.263  11.715  -9.724  1.00 57.55     0.361 C 
HETATM    7  O24   D T 401      12.384  10.868  -9.694  1.00 50.79    -0.238 OA
HETATM    8  H11   D T 401      13.871  13.612  -9.383  1.00 65.46     0.165 HD
BRANCH   6   9
HETATM    9  O7    D T 401      14.580  11.353 -10.185  1.00 56.36    -0.299 OA
BRANCH   9  10
HETATM   10  C6    D T 401      14.711  11.059 -11.526  1.00 61.93     0.228 C 
BRANCH  10  11
HETATM   11  C2    D T 401      15.968  11.667 -12.052  1.00 76.84     0.022 A 
HETATM   12  C1    D T 401      17.174  11.171 -12.514  1.00 77.89     0.128 A 
HETATM   13  N5    D T 401      18.002  12.178 -12.890  1.00 89.70    -0.282 NA
HETATM   14  C4    D T 401      17.483  13.423 -12.740  1.00 85.46     0.208 A 
HETATM   15  S3    D T 401      15.869  13.381 -12.085  1.00 90.97    -0.100 SA
ENDBRANCH  10  11
ENDBRANCH   9  10
ENDBRANCH   6   9
ENDBRANCH   4   5
BRANCH   4  16
HETATM   16  C26   D T 401      12.048  14.141  -7.515  1.00 53.54     0.066 C 
BRANCH  16  17
HETATM   17  C28   D T 401      11.217  13.387  -6.522  1.00 51.74    -0.056 A 
HETATM   18  C31   D T 401      10.585  12.229  -6.925  1.00 56.62     0.007 A 
HETATM   19  C32   D T 401       9.821  11.507  -6.023  1.00 61.24     0.001 A 
HETATM   20  C33   D T 401       9.713  11.938  -4.710  1.00 57.56     0.000 A 
HETATM   21  C34   D T 401      10.366  13.099  -4.312  1.00 57.29     0.001 A 
HETATM   22  C35   D T 401      11.128  13.824  -5.222  1.00 54.64     0.007 A 
ENDBRANCH  16  17
ENDBRANCH   4  16
ENDBRANCH   3   4
BRANCH   3  23
HETATM   23  O41   D T 401      10.359  15.390  -9.164  1.00 46.89    -0.393 OA
HETATM   24  HO4   D T 401       9.545  14.935  -8.908  1.00 56.30     0.210 HD
ENDBRANCH   3  23
ENDBRANCH   2   3
ENDBRANCH   1   2
BRANCH   1  25
HETATM   25  C44   D T 401      11.510  14.219 -12.553  1.00 57.31     0.063 C 
BRANCH  25  26
HETATM   26  C45   D T 401      10.611  14.456 -13.724  1.00 62.23    -0.056 A 
HETATM   27  C48   D T 401      10.827  13.764 -14.901  1.00 68.40     0.007 A 
HETATM   28  C49   D T 401       9.984  13.980 -15.984  1.00 68.89     0.001 A 
HETATM   29  C50   D T 401       8.933  14.885 -15.883  1.00 70.95     0.000 A 
HETATM   30  C51   D T 401       8.723  15.573 -14.695  1.00 69.71     0.001 A 
HETATM   31  C52   D T 401       9.565  15.356 -13.609  1.00 63.86     0.007 A 
ENDBRANCH  25  26
ENDBRANCH   1  25
BRANCH   1  32
HETATM   32  N58   D T 401      13.195  15.976 -12.746  1.00 57.14    -0.354 N 
HETATM   33  C18   D T 401      13.559  17.252 -12.655  1.00 63.33     0.241 C 
HETATM   34  O61   D T 401      12.944  18.017 -11.935  1.00 56.06    -0.271 OA
HETATM   35  H58   D T 401      13.721  15.311 -13.295  1.00 68.60     0.162 HD
BRANCH  33  36
HETATM   36  C19   D T 401      14.716  17.745 -13.455  1.00 62.97     0.181 C 
BRANCH  36  37
HETATM   37  N20   D T 401      15.985  17.931 -12.742  1.00 62.86    -0.329 N 
HETATM   38  C21   D T 401      16.348  19.093 -12.249  1.00 67.85     0.319 C 
HETATM   39  N74   D T 401      17.228  19.128 -11.267  1.00 70.47    -0.333 N 
HETATM   40  O76   D T 401      15.855  20.121 -12.653  1.00 58.01    -0.247 OA
HETATM   41  C95   D T 401      18.129  18.055 -10.914  1.00 68.34     0.154 C 
HETATM   42  H20   D T 401      16.591  17.130 -12.634  1.00 75.47     0.165 HD
BRANCH  39  43
HETATM   43  C75   D T 401      17.341  20.313 -10.421  1.00 68.98     0.183 C 
BRANCH  43  44
HETATM   44  C77   D T 401      16.404  20.044  -9.283  1.00 78.58     0.047 A 
HETATM   45  C80   D T 401      16.193  20.972  -8.280  1.00 85.18     0.122 A 
HETATM   46  S81   D T 401      15.082  20.391  -7.090  1.00 94.63    -0.102 SA
HETATM   47  C82   D T 401      14.985  18.933  -8.003  1.00 83.84     0.075 A 
HETATM   48  N83   D T 401      15.737  18.899  -9.108  1.00 84.20    -0.252 NA
BRANCH  47  49
HETATM   49  C85   D T 401      14.085  17.931  -7.438  1.00 85.08     0.036 C 
HETATM   50  C86   D T 401      12.727  18.252  -7.927  1.00 89.40     0.016 C 
HETATM   51  C90   D T 401      14.628  16.555  -7.734  1.00 90.17     0.016 C 
ENDBRANCH  47  49
ENDBRANCH  43  44
ENDBRANCH  39  43
ENDBRANCH  36  37
BRANCH  36  52
HETATM   52  C62   D T 401      15.076  16.651 -14.466  1.00 69.84     0.009 C 
HETATM   53  C64   D T 401      14.491  16.905 -15.842  1.00 64.64     0.012 C 
HETATM   54  C68   D T 401      16.590  16.494 -14.571  1.00 69.88     0.012 C 
ENDBRANCH  36  52
ENDBRANCH  33  36
ENDBRANCH   1  32
TORSDOF 19
ENDMDL
MODEL 6
REMARK VINA RESULT:      -7.6      3.254      8.043
REMARK  19 active torsions:
REMARK  status: ('A' for Active; 'I' for Inactive)
REMARK    1  A    between atoms: C2_2  and  C6_6 
REMARK    2  A    between atoms: C6_6  and  O7_7 
REMARK    3  A    between atoms: O7_7  and  C10_8 
REMARK       I    between atoms: C10_8  and  N11_10 
REMARK    4  A    between atoms: N11_10  and  C12_11 
REMARK    5  A    between atoms: C12_11  and  C13_12 
REMARK    6  A    between atoms: C12_11  and  C26_15 
REMARK    7  A    between atoms: C13_12  and  C14_13 
REMARK    8  A    between atoms: C13_12  and  O41_22 
REMARK    9  A    between atoms: C14_13  and  C15_14 
REMARK   10  A    between atoms: C15_14  and  C44_23 
REMARK   11  A    between atoms: C15_14  and  N58_30 
REMARK   12  A    between atoms: C26_15  and  C28_16 
REMARK   13  A    between atoms: C44_23  and  C45_24 
REMARK       I    between atoms: N58_30  and  C18_33 
REMARK   14  A    between atoms: N20_31  and  C19_32 
REMARK       I    between atoms: N20_31  and  C21_38 
REMARK   15  A    between atoms: C19_32  and  C18_33 
REMARK   16  A    between atoms: C19_32  and  C62_35 
REMARK       I    between atoms: C21_38  and  N74_39 
REMARK   17  A    between atoms: N74_39  and  C75_40 
REMARK   18  A    between atoms: C75_40  and  C77_42 
REMARK   19  A    between atoms: C82_45  and  C85_47 
ROOT
HETATM    1  C15   D T 401      12.346  15.438  -8.480  1.00 55.13     0.091 C 
ENDROOT
BRANCH   1   2
HETATM    2  C14   D T 401      12.463  16.336  -9.707  1.00 56.49     0.059 C 
BRANCH   2   3
HETATM    3  C13   D T 401      11.197  16.393 -10.548  1.00 52.85     0.143 C 
BRANCH   3   4
HETATM    4  C12   D T 401      11.371  15.776 -11.919  1.00 51.97     0.119 C 
BRANCH   4   5
HETATM    5  N11   D T 401      12.746  15.382 -12.142  1.00 54.53    -0.329 N 
HETATM    6  C10   D T 401      13.420  15.729 -13.227  1.00 57.55     0.361 C 
HETATM    7  O24   D T 401      12.950  16.389 -14.139  1.00 50.79    -0.238 OA
HETATM    8  H11   D T 401      13.198  14.819 -11.436  1.00 65.46     0.165 HD
BRANCH   6   9
HETATM    9  O7    D T 401      14.787  15.279 -13.310  1.00 56.36    -0.299 OA
BRANCH   9  10
HETATM   10  C6    D T 401      15.297  15.069 -14.574  1.00 61.93     0.228 C 
BRANCH  10  11
HETATM   11  C2    D T 401      15.363  13.604 -14.851  1.00 76.84     0.022 A 
HETATM   12  C1    D T 401      16.206  12.575 -14.469  1.00 77.89     0.128 A 
HETATM   13  N5    D T 401      15.810  11.396 -15.012  1.00 89.70    -0.282 NA
HETATM   14  C4    D T 401      14.700  11.476 -15.790  1.00 85.46     0.208 A 
HETATM   15  S3    D T 401      14.086  13.103 -15.884  1.00 90.97    -0.100 SA
ENDBRANCH  10  11
ENDBRANCH   9  10
ENDBRANCH   6   9
ENDBRANCH   4   5
BRANCH   4  16
HETATM   16  C26   D T 401      10.492  14.532 -12.063  1.00 53.54     0.066 C 
BRANCH  16  17
HETATM   17  C28   D T 401      10.025  14.495 -13.486  1.00 51.74    -0.056 A 
HETATM   18  C31   D T 401       9.127  15.450 -13.917  1.00 56.62     0.007 A 
HETATM   19  C32   D T 401       8.690  15.445 -15.231  1.00 61.24     0.001 A 
HETATM   20  C33   D T 401       9.174  14.495 -16.116  1.00 57.56     0.000 A 
HETATM   21  C34   D T 401      10.089  13.547 -15.674  1.00 57.29     0.001 A 
HETATM   22  C35   D T 401      10.522  13.551 -14.353  1.00 54.64     0.007 A 
ENDBRANCH  16  17
ENDBRANCH   4  16
ENDBRANCH   3   4
BRANCH   3  23
HETATM   23  O41   D T 401      10.190  15.671  -9.806  1.00 46.89    -0.393 OA
HETATM   24  HO4   D T 401       9.631  15.174 -10.418  1.00 56.30     0.210 HD
ENDBRANCH   3  23
ENDBRANCH   2   3
ENDBRANCH   1   2
BRANCH   1  25
HETATM   25  C44   D T 401      13.577  15.758  -7.641  1.00 57.31     0.063 C 
BRANCH  25  26
HETATM   26  C45   D T 401      13.530  17.193  -7.223  1.00 62.23    -0.056 A 
HETATM   27  C48   D T 401      12.508  17.630  -6.400  1.00 68.40     0.007 A 
HETATM   28  C49   D T 401      12.472  18.962  -6.007  1.00 68.89     0.001 A 
HETATM   29  C50   D T 401      13.455  19.846  -6.437  1.00 70.95     0.000 A 
HETATM   30  C51   D T 401      14.479  19.396  -7.261  1.00 69.71     0.001 A 
HETATM   31  C52   D T 401      14.517  18.062  -7.654  1.00 63.86     0.007 A 
ENDBRANCH  25  26
ENDBRANCH   1  25
BRANCH   1  32
HETATM   32  N58   D T 401      12.315  14.034  -8.822  1.00 57.14    -0.354 N 
HETATM   33  C18   D T 401      13.359  13.530  -9.475  1.00 63.33     0.241 C 
HETATM   34  O61   D T 401      14.330  14.225  -9.711  1.00 56.06    -0.271 OA
HETATM   35  H58   D T 401      11.522  13.463  -8.569  1.00 68.60     0.162 HD
BRANCH  33  36
HETATM   36  C19   D T 401      13.327  12.111  -9.929  1.00 62.97     0.181 C 
BRANCH  36  37
HETATM   37  N20   D T 401      12.013  11.549 -10.259  1.00 62.86    -0.329 N 
HETATM   38  C21   D T 401      11.565  10.443  -9.709  1.00 67.85     0.319 C 
HETATM   39  N74   D T 401      10.266  10.221  -9.677  1.00 70.47    -0.333 N 
HETATM   40  O76   D T 401      12.325   9.653  -9.195  1.00 58.01    -0.247 OA
HETATM   41  C95   D T 401       9.286  10.877 -10.512  1.00 68.34     0.154 C 
HETATM   42  H20   D T 401      11.442  12.038 -10.933  1.00 75.47     0.165 HD
BRANCH  39  43
HETATM   43  C75   D T 401       9.705   9.257  -8.733  1.00 68.98     0.183 C 
BRANCH  43  44
HETATM   44  C77   D T 401       9.317  10.086  -7.547  1.00 78.58     0.047 A 
HETATM   45  C80   D T 401       7.999  10.216  -7.151  1.00 85.18     0.122 A 
HETATM   46  S81   D T 401       7.840  11.243  -5.769  1.00 94.63    -0.102 SA
HETATM   47  C82   D T 401       9.550  11.448  -5.821  1.00 83.84     0.075 A 
HETATM   48  N83   D T 401      10.176  10.794  -6.806  1.00 84.20    -0.252 NA
BRANCH  47  49
HETATM   49  C85   D T 401      10.083  12.312  -4.771  1.00 85.08     0.036 C 
HETATM   50  C86   D T 401      10.962  13.299  -5.435  1.00 89.40     0.016 C 
HETATM   51  C90   D T 401       8.942  12.840  -3.938  1.00 90.17     0.016 C 
ENDBRANCH  47  49
ENDBRANCH  43  44
ENDBRANCH  39  43
ENDBRANCH  36  37
BRANCH  36  52
HETATM   52  C62   D T 401      14.050  12.043 -11.279  1.00 69.84     0.009 C 
HETATM   53  C64   D T 401      15.082  10.933 -11.339  1.00 64.64     0.012 C 
HETATM   54  C68   D T 401      13.048  11.877 -12.417  1.00 69.88     0.012 C 
ENDBRANCH  36  52
ENDBRANCH  33  36
ENDBRANCH   1  32
TORSDOF 19
ENDMDL
MODEL 7
REMARK VINA RESULT:      -7.6      3.287      9.232
REMARK  19 active torsions:
REMARK  status: ('A' for Active; 'I' for Inactive)
REMARK    1  A    between atoms: C2_2  and  C6_6 
REMARK    2  A    between atoms: C6_6  and  O7_7 
REMARK    3  A    between atoms: O7_7  and  C10_8 
REMARK       I    between atoms: C10_8  and  N11_10 
REMARK    4  A    between atoms: N11_10  and  C12_11 
REMARK    5  A    between atoms: C12_11  and  C13_12 
REMARK    6  A    between atoms: C12_11  and  C26_15 
REMARK    7  A    between atoms: C13_12  and  C14_13 
REMARK    8  A    between atoms: C13_12  and  O41_22 
REMARK    9  A    between atoms: C14_13  and  C15_14 
REMARK   10  A    between atoms: C15_14  and  C44_23 
REMARK   11  A    between atoms: C15_14  and  N58_30 
REMARK   12  A    between atoms: C26_15  and  C28_16 
REMARK   13  A    between atoms: C44_23  and  C45_24 
REMARK       I    between atoms: N58_30  and  C18_33 
REMARK   14  A    between atoms: N20_31  and  C19_32 
REMARK       I    between atoms: N20_31  and  C21_38 
REMARK   15  A    between atoms: C19_32  and  C18_33 
REMARK   16  A    between atoms: C19_32  and  C62_35 
REMARK       I    between atoms: C21_38  and  N74_39 
REMARK   17  A    between atoms: N74_39  and  C75_40 
REMARK   18  A    between atoms: C75_40  and  C77_42 
REMARK   19  A    between atoms: C82_45  and  C85_47 
ROOT
HETATM    1  C15   D T 401      14.448  17.843 -11.951  1.00 55.13     0.091 C 
ENDROOT
BRANCH   1   2
HETATM    2  C14   D T 401      15.513  18.935 -11.952  1.00 56.49     0.059 C 
BRANCH   2   3
HETATM    3  C13   D T 401      16.934  18.406 -11.840  1.00 52.85     0.143 C 
BRANCH   3   4
HETATM    4  C12   D T 401      17.673  18.950 -10.636  1.00 51.97     0.119 C 
BRANCH   4   5
HETATM    5  N11   D T 401      19.093  18.692 -10.735  1.00 54.53    -0.329 N 
HETATM    6  C10   D T 401      19.809  18.240  -9.717  1.00 57.55     0.361 C 
HETATM    7  O24   D T 401      19.352  18.019  -8.608  1.00 50.79    -0.238 OA
HETATM    8  H11   D T 401      19.545  18.868 -11.620  1.00 65.46     0.165 HD
BRANCH   6   9
HETATM    9  O7    D T 401      21.211  18.015  -9.963  1.00 56.36    -0.299 OA
BRANCH   9  10
HETATM   10  C6    D T 401      21.795  18.757 -10.968  1.00 61.93     0.228 C 
BRANCH  10  11
HETATM   11  C2    D T 401      22.996  19.465 -10.436  1.00 76.84     0.022 A 
HETATM   12  C1    D T 401      24.156  19.071  -9.793  1.00 77.89     0.128 A 
HETATM   13  N5    D T 401      24.946  20.140  -9.520  1.00 89.70    -0.282 NA
HETATM   14  C4    D T 401      24.445  21.334  -9.928  1.00 85.46     0.208 A 
HETATM   15  S3    D T 401      22.892  21.159 -10.696  1.00 90.97    -0.100 SA
ENDBRANCH  10  11
ENDBRANCH   9  10
ENDBRANCH   6   9
ENDBRANCH   4   5
BRANCH   4  16
HETATM   16  C26   D T 401      17.472  20.462 -10.521  1.00 53.54     0.066 C 
BRANCH  16  17
HETATM   17  C28   D T 401      17.225  20.757  -9.073  1.00 51.74    -0.056 A 
HETATM   18  C31   D T 401      18.152  21.508  -8.378  1.00 56.62     0.007 A 
HETATM   19  C32   D T 401      17.940  21.804  -7.042  1.00 61.24     0.001 A 
HETATM   20  C33   D T 401      16.786  21.365  -6.412  1.00 57.56     0.000 A 
HETATM   21  C34   D T 401      15.853  20.622  -7.126  1.00 57.29     0.001 A 
HETATM   22  C35   D T 401      16.071  20.321  -8.466  1.00 54.64     0.007 A 
ENDBRANCH  16  17
ENDBRANCH   4  16
ENDBRANCH   3   4
BRANCH   3  23
HETATM   23  O41   D T 401      16.820  16.969 -11.742  1.00 46.89    -0.393 OA
HETATM   24  HO4   D T 401      16.508  16.730 -10.859  1.00 56.30     0.210 HD
ENDBRANCH   3  23
ENDBRANCH   2   3
ENDBRANCH   1   2
BRANCH   1  25
HETATM   25  C44   D T 401      13.847  17.879 -13.351  1.00 57.31     0.063 C 
BRANCH  25  26
HETATM   26  C45   D T 401      13.658  16.480 -13.842  1.00 62.23    -0.056 A 
HETATM   27  C48   D T 401      12.616  15.718 -13.346  1.00 68.40     0.007 A 
HETATM   28  C49   D T 401      12.438  14.421 -13.811  1.00 68.89     0.001 A 
HETATM   29  C50   D T 401      13.300  13.895 -14.767  1.00 70.95     0.000 A 
HETATM   30  C51   D T 401      14.342  14.670 -15.261  1.00 69.71     0.001 A 
HETATM   31  C52   D T 401      14.520  15.970 -14.798  1.00 63.86     0.007 A 
ENDBRANCH  25  26
ENDBRANCH   1  25
BRANCH   1  32
HETATM   32  N58   D T 401      13.426  18.068 -10.953  1.00 57.14    -0.354 N 
HETATM   33  C18   D T 401      13.491  17.362  -9.827  1.00 63.33     0.241 C 
HETATM   34  O61   D T 401      14.422  16.603  -9.631  1.00 56.06    -0.271 OA
HETATM   35  H58   D T 401      12.693  18.742 -11.115  1.00 68.60     0.162 HD
BRANCH  33  36
HETATM   36  C19   D T 401      12.407  17.495  -8.813  1.00 62.97     0.181 C 
BRANCH  36  37
HETATM   37  N20   D T 401      11.808  16.252  -8.314  1.00 62.86    -0.329 N 
HETATM   38  C21   D T 401      11.143  15.431  -9.095  1.00 67.85     0.319 C 
HETATM   39  N74   D T 401      11.019  14.167  -8.741  1.00 70.47    -0.333 N 
HETATM   40  O76   D T 401      10.685  15.810 -10.149  1.00 58.01    -0.247 OA
HETATM   41  C95   D T 401      11.209  13.651  -7.405  1.00 68.34     0.154 C 
HETATM   42  H20   D T 401      11.918  16.032  -7.335  1.00 75.47     0.165 HD
BRANCH  39  43
HETATM   43  C75   D T 401      10.678  13.153  -9.735  1.00 68.98     0.183 C 
BRANCH  43  44
HETATM   44  C77   D T 401      11.979  12.469 -10.025  1.00 78.58     0.047 A 
HETATM   45  C80   D T 401      12.164  11.122  -9.776  1.00 85.18     0.122 A 
HETATM   46  S81   D T 401      13.762  10.605 -10.185  1.00 94.63    -0.102 SA
HETATM   47  C82   D T 401      14.087  12.232 -10.649  1.00 83.84     0.075 A 
HETATM   48  N83   D T 401      13.067  13.085 -10.498  1.00 84.20    -0.252 NA
BRANCH  47  49
HETATM   49  C85   D T 401      15.441  12.454 -11.149  1.00 85.08     0.036 C 
HETATM   50  C86   D T 401      15.758  11.319 -12.042  1.00 89.40     0.016 C 
HETATM   51  C90   D T 401      15.534  13.844 -11.726  1.00 90.17     0.016 C 
ENDBRANCH  47  49
ENDBRANCH  43  44
ENDBRANCH  39  43
ENDBRANCH  36  37
BRANCH  36  52
HETATM   52  C62   D T 401      13.033  18.080  -7.543  1.00 69.84     0.009 C 
HETATM   53  C64   D T 401      12.372  19.371  -7.100  1.00 64.64     0.012 C 
HETATM   54  C68   D T 401      12.991  17.063  -6.407  1.00 69.88     0.012 C 
ENDBRANCH  36  52
ENDBRANCH  33  36
ENDBRANCH   1  32
TORSDOF 19
ENDMDL
MODEL 8
REMARK VINA RESULT:      -7.6      2.523      8.099
REMARK  19 active torsions:
REMARK  status: ('A' for Active; 'I' for Inactive)
REMARK    1  A    between atoms: C2_2  and  C6_6 
REMARK    2  A    between atoms: C6_6  and  O7_7 
REMARK    3  A    between atoms: O7_7  and  C10_8 
REMARK       I    between atoms: C10_8  and  N11_10 
REMARK    4  A    between atoms: N11_10  and  C12_11 
REMARK    5  A    between atoms: C12_11  and  C13_12 
REMARK    6  A    between atoms: C12_11  and  C26_15 
REMARK    7  A    between atoms: C13_12  and  C14_13 
REMARK    8  A    between atoms: C13_12  and  O41_22 
REMARK    9  A    between atoms: C14_13  and  C15_14 
REMARK   10  A    between atoms: C15_14  and  C44_23 
REMARK   11  A    between atoms: C15_14  and  N58_30 
REMARK   12  A    between atoms: C26_15  and  C28_16 
REMARK   13  A    between atoms: C44_23  and  C45_24 
REMARK       I    between atoms: N58_30  and  C18_33 
REMARK   14  A    between atoms: N20_31  and  C19_32 
REMARK       I    between atoms: N20_31  and  C21_38 
REMARK   15  A    between atoms: C19_32  and  C18_33 
REMARK   16  A    between atoms: C19_32  and  C62_35 
REMARK       I    between atoms: C21_38  and  N74_39 
REMARK   17  A    between atoms: N74_39  and  C75_40 
REMARK   18  A    between atoms: C75_40  and  C77_42 
REMARK   19  A    between atoms: C82_45  and  C85_47 
ROOT
HETATM    1  C15   D T 401      12.551  15.117  -8.638  1.00 55.13     0.091 C 
ENDROOT
BRANCH   1   2
HETATM    2  C14   D T 401      12.745  15.914  -9.924  1.00 56.49     0.059 C 
BRANCH   2   3
HETATM    3  C13   D T 401      11.462  16.128 -10.713  1.00 52.85     0.143 C 
BRANCH   3   4
HETATM    4  C12   D T 401      11.563  15.650 -12.145  1.00 51.97     0.119 C 
BRANCH   4   5
HETATM    5  N11   D T 401      12.943  15.430 -12.525  1.00 54.53    -0.329 N 
HETATM    6  C10   D T 401      13.569  16.190 -13.409  1.00 57.55     0.361 C 
HETATM    7  O24   D T 401      13.047  17.124 -13.996  1.00 50.79    -0.238 OA
HETATM    8  H11   D T 401      13.436  14.663 -12.092  1.00 65.46     0.165 HD
BRANCH   6   9
HETATM    9  O7    D T 401      14.947  15.865 -13.680  1.00 56.36    -0.299 OA
BRANCH   9  10
HETATM   10  C6    D T 401      15.771  16.906 -14.052  1.00 61.93     0.228 C 
BRANCH  10  11
HETATM   11  C2    D T 401      16.324  17.568 -12.834  1.00 76.84     0.022 A 
HETATM   12  C1    D T 401      17.089  17.151 -11.758  1.00 77.89     0.128 A 
HETATM   13  N5    D T 401      17.326  18.178 -10.904  1.00 89.70    -0.282 NA
HETATM   14  C4    D T 401      16.780  19.363 -11.278  1.00 85.46     0.208 A 
HETATM   15  S3    D T 401      15.902  19.231 -12.776  1.00 90.97    -0.100 SA
ENDBRANCH  10  11
ENDBRANCH   9  10
ENDBRANCH   6   9
ENDBRANCH   4   5
BRANCH   4  16
HETATM   16  C26   D T 401      10.806  14.333 -12.326  1.00 53.54     0.066 C 
BRANCH  16  17
HETATM   17  C28   D T 401      10.245  14.346 -13.716  1.00 51.74    -0.056 A 
HETATM   18  C31   D T 401      10.634  13.360 -14.600  1.00 56.62     0.007 A 
HETATM   19  C32   D T 401      10.119  13.343 -15.885  1.00 61.24     0.001 A 
HETATM   20  C33   D T 401       9.197  14.302 -16.273  1.00 57.56     0.000 A 
HETATM   21  C34   D T 401       8.802  15.281 -15.369  1.00 57.29     0.001 A 
HETATM   22  C35   D T 401       9.324  15.299 -14.080  1.00 54.64     0.007 A 
ENDBRANCH  16  17
ENDBRANCH   4  16
ENDBRANCH   3   4
BRANCH   3  23
HETATM   23  O41   D T 401      10.436  15.388 -10.016  1.00 46.89    -0.393 OA
HETATM   24  HO4   D T 401      10.701  14.460  -9.943  1.00 56.30     0.210 HD
ENDBRANCH   3  23
ENDBRANCH   2   3
ENDBRANCH   1   2
BRANCH   1  25
HETATM   25  C44   D T 401      13.733  15.501  -7.757  1.00 57.31     0.063 C 
BRANCH  25  26
HETATM   26  C45   D T 401      13.563  16.911  -7.291  1.00 62.23    -0.056 A 
HETATM   27  C48   D T 401      12.513  17.230  -6.451  1.00 68.40     0.007 A 
HETATM   28  C49   D T 401      12.364  18.541  -6.013  1.00 68.89     0.001 A 
HETATM   29  C50   D T 401      13.263  19.521  -6.417  1.00 70.95     0.000 A 
HETATM   30  C51   D T 401      14.316  19.190  -7.260  1.00 69.71     0.001 A 
HETATM   31  C52   D T 401      14.469  17.878  -7.697  1.00 63.86     0.007 A 
ENDBRANCH  25  26
ENDBRANCH   1  25
BRANCH   1  32
HETATM   32  N58   D T 401      12.532  13.690  -8.870  1.00 57.14    -0.354 N 
HETATM   33  C18   D T 401      13.443  13.182  -9.695  1.00 63.33     0.241 C 
HETATM   34  O61   D T 401      14.300  13.898 -10.180  1.00 56.06    -0.271 OA
HETATM   35  H58   D T 401      11.844  13.108  -8.415  1.00 68.60     0.162 HD
BRANCH  33  36
HETATM   36  C19   D T 401      13.400  11.731 -10.035  1.00 62.97     0.181 C 
BRANCH  36  37
HETATM   37  N20   D T 401      12.083  11.158 -10.331  1.00 62.86    -0.329 N 
HETATM   38  C21   D T 401      11.622  10.100  -9.705  1.00 67.85     0.319 C 
HETATM   39  N74   D T 401      10.320   9.892  -9.666  1.00 70.47    -0.333 N 
HETATM   40  O76   D T 401      12.370   9.343  -9.129  1.00 58.01    -0.247 OA
HETATM   41  C95   D T 401       9.352  10.492 -10.554  1.00 68.34     0.154 C 
HETATM   42  H20   D T 401      11.521  11.601 -11.044  1.00 75.47     0.165 HD
BRANCH  39  43
HETATM   43  C75   D T 401       9.745   9.005  -8.658  1.00 68.98     0.183 C 
BRANCH  43  44
HETATM   44  C77   D T 401       9.363   9.921  -7.536  1.00 78.58     0.047 A 
HETATM   45  C80   D T 401       8.043  10.118  -7.174  1.00 85.18     0.122 A 
HETATM   46  S81   D T 401       7.894  11.237  -5.866  1.00 94.63    -0.102 SA
HETATM   47  C82   D T 401       9.611  11.385  -5.898  1.00 83.84     0.075 A 
HETATM   48  N83   D T 401      10.231  10.649  -6.827  1.00 84.20    -0.252 NA
BRANCH  47  49
HETATM   49  C85   D T 401      10.153  12.299  -4.896  1.00 85.08     0.036 C 
HETATM   50  C86   D T 401      10.954  13.306  -5.625  1.00 89.40     0.016 C 
HETATM   51  C90   D T 401       9.030  12.798  -4.022  1.00 90.17     0.016 C 
ENDBRANCH  47  49
ENDBRANCH  43  44
ENDBRANCH  39  43
ENDBRANCH  36  37
BRANCH  36  52
HETATM   52  C62   D T 401      14.136  11.547 -11.366  1.00 69.84     0.009 C 
HETATM   53  C64   D T 401      15.021  10.317 -11.386  1.00 64.64     0.012 C 
HETATM   54  C68   D T 401      13.143  11.488 -12.524  1.00 69.88     0.012 C 
ENDBRANCH  36  52
ENDBRANCH  33  36
ENDBRANCH   1  32
TORSDOF 19
ENDMDL
MODEL 9
REMARK VINA RESULT:      -7.6      2.092      4.495
REMARK  19 active torsions:
REMARK  status: ('A' for Active; 'I' for Inactive)
REMARK    1  A    between atoms: C2_2  and  C6_6 
REMARK    2  A    between atoms: C6_6  and  O7_7 
REMARK    3  A    between atoms: O7_7  and  C10_8 
REMARK       I    between atoms: C10_8  and  N11_10 
REMARK    4  A    between atoms: N11_10  and  C12_11 
REMARK    5  A    between atoms: C12_11  and  C13_12 
REMARK    6  A    between atoms: C12_11  and  C26_15 
REMARK    7  A    between atoms: C13_12  and  C14_13 
REMARK    8  A    between atoms: C13_12  and  O41_22 
REMARK    9  A    between atoms: C14_13  and  C15_14 
REMARK   10  A    between atoms: C15_14  and  C44_23 
REMARK   11  A    between atoms: C15_14  and  N58_30 
REMARK   12  A    between atoms: C26_15  and  C28_16 
REMARK   13  A    between atoms: C44_23  and  C45_24 
REMARK       I    between atoms: N58_30  and  C18_33 
REMARK   14  A    between atoms: N20_31  and  C19_32 
REMARK       I    between atoms: N20_31  and  C21_38 
REMARK   15  A    between atoms: C19_32  and  C18_33 
REMARK   16  A    between atoms: C19_32  and  C62_35 
REMARK       I    between atoms: C21_38  and  N74_39 
REMARK   17  A    between atoms: N74_39  and  C75_40 
REMARK   18  A    between atoms: C75_40  and  C77_42 
REMARK   19  A    between atoms: C82_45  and  C85_47 
ROOT
HETATM    1  C15   D T 401      13.129  16.683 -10.259  1.00 55.13     0.091 C 
ENDROOT
BRANCH   1   2
HETATM    2  C14   D T 401      12.438  15.323 -10.238  1.00 56.49     0.059 C 
BRANCH   2   3
HETATM    3  C13   D T 401      10.947  15.388 -10.530  1.00 52.85     0.143 C 
BRANCH   3   4
HETATM    4  C12   D T 401      10.525  14.467 -11.655  1.00 51.97     0.119 C 
BRANCH   4   5
HETATM    5  N11   D T 401       9.797  13.324 -11.148  1.00 54.53    -0.329 N 
HETATM    6  C10   D T 401      10.224  12.081 -11.302  1.00 57.55     0.361 C 
HETATM    7  O24   D T 401      11.248  11.780 -11.893  1.00 50.79    -0.238 OA
HETATM    8  H11   D T 401       8.929  13.494 -10.661  1.00 65.46     0.165 HD
BRANCH   6   9
HETATM    9  O7    D T 401       9.404  11.041 -10.732  1.00 56.36    -0.299 OA
BRANCH   9  10
HETATM   10  C6    D T 401      10.034  10.131  -9.909  1.00 61.93     0.228 C 
BRANCH  10  11
HETATM   11  C2    D T 401       9.530  10.285  -8.513  1.00 76.84     0.022 A 
HETATM   12  C1    D T 401       8.511   9.709  -7.774  1.00 77.89     0.128 A 
HETATM   13  N5    D T 401       8.481  10.213  -6.514  1.00 89.70    -0.282 NA
HETATM   14  C4    D T 401       9.433  11.145  -6.254  1.00 85.46     0.208 A 
HETATM   15  S3    D T 401      10.443  11.448  -7.641  1.00 90.97    -0.100 SA
ENDBRANCH  10  11
ENDBRANCH   9  10
ENDBRANCH   6   9
ENDBRANCH   4   5
BRANCH   4  16
HETATM   16  C26   D T 401       9.620  15.206 -12.643  1.00 53.54     0.066 C 
BRANCH  16  17
HETATM   17  C28   D T 401      10.107  14.859 -14.017  1.00 51.74    -0.056 A 
HETATM   18  C31   D T 401       9.193  14.784 -15.048  1.00 56.62     0.007 A 
HETATM   19  C32   D T 401       9.619  14.478 -16.329  1.00 61.24     0.001 A 
HETATM   20  C33   D T 401      10.967  14.269 -16.577  1.00 57.56     0.000 A 
HETATM   21  C34   D T 401      11.880  14.360 -15.533  1.00 57.29     0.001 A 
HETATM   22  C35   D T 401      11.448  14.663 -14.246  1.00 54.64     0.007 A 
ENDBRANCH  16  17
ENDBRANCH   4  16
ENDBRANCH   3   4
BRANCH   3  23
HETATM   23  O41   D T 401      10.283  15.006  -9.305  1.00 46.89    -0.393 OA
HETATM   24  HO4   D T 401       9.997  15.800  -8.832  1.00 56.30     0.210 HD
ENDBRANCH   3  23
ENDBRANCH   2   3
ENDBRANCH   1   2
BRANCH   1  25
HETATM   25  C44   D T 401      12.084  17.662  -9.742  1.00 57.31     0.063 C 
BRANCH  25  26
HETATM   26  C45   D T 401      12.324  17.917  -8.288  1.00 62.23    -0.056 A 
HETATM   27  C48   D T 401      12.634  16.860  -7.453  1.00 68.40     0.007 A 
HETATM   28  C49   D T 401      12.866  17.103  -6.104  1.00 68.89     0.001 A 
HETATM   29  C50   D T 401      12.787  18.396  -5.601  1.00 70.95     0.000 A 
HETATM   30  C51   D T 401      12.477  19.452  -6.449  1.00 69.71     0.001 A 
HETATM   31  C52   D T 401      12.247  19.211  -7.800  1.00 63.86     0.007 A 
ENDBRANCH  25  26
ENDBRANCH   1  25
BRANCH   1  32
HETATM   32  N58   D T 401      13.567  17.059 -11.584  1.00 57.14    -0.354 N 
HETATM   33  C18   D T 401      14.876  17.174 -11.797  1.00 63.33     0.241 C 
HETATM   34  O61   D T 401      15.668  16.904 -10.914  1.00 56.06    -0.271 OA
HETATM   35  H58   D T 401      12.894  17.227 -12.317  1.00 68.60     0.162 HD
BRANCH  33  36
HETATM   36  C19   D T 401      15.366  17.651 -13.121  1.00 62.97     0.181 C 
BRANCH  36  37
HETATM   37  N20   D T 401      16.764  18.087 -13.195  1.00 62.86    -0.329 N 
HETATM   38  C21   D T 401      17.115  19.346 -13.064  1.00 67.85     0.319 C 
HETATM   39  N74   D T 401      18.346  19.636 -12.693  1.00 70.47    -0.333 N 
HETATM   40  O76   D T 401      16.312  20.235 -13.237  1.00 58.01    -0.247 OA
HETATM   41  C95   D T 401      19.475  18.738 -12.773  1.00 68.34     0.154 C 
HETATM   42  H20   D T 401      17.473  17.384 -13.351  1.00 75.47     0.165 HD
BRANCH  39  43
HETATM   43  C75   D T 401      18.658  20.949 -12.135  1.00 68.98     0.183 C 
BRANCH  43  44
HETATM   44  C77   D T 401      18.275  20.835 -10.691  1.00 78.58     0.047 A 
HETATM   45  C80   D T 401      19.185  21.065  -9.676  1.00 85.18     0.122 A 
HETATM   46  S81   D T 401      18.478  20.844  -8.114  1.00 94.63    -0.102 SA
HETATM   47  C82   D T 401      17.010  20.441  -8.921  1.00 83.84     0.075 A 
HETATM   48  N83   D T 401      17.065  20.470 -10.257  1.00 84.20    -0.252 NA
BRANCH  47  49
HETATM   49  C85   D T 401      15.901  20.124  -8.024  1.00 85.08     0.036 C 
HETATM   50  C86   D T 401      15.863  18.652  -7.896  1.00 89.40     0.016 C 
HETATM   51  C90   D T 401      16.039  20.934  -6.760  1.00 90.17     0.016 C 
ENDBRANCH  47  49
ENDBRANCH  43  44
ENDBRANCH  39  43
ENDBRANCH  36  37
BRANCH  36  52
HETATM   52  C62   D T 401      15.355  16.452 -14.076  1.00 69.84     0.009 C 
HETATM   53  C64   D T 401      14.676  16.756 -15.397  1.00 64.64     0.012 C 
HETATM   54  C68   D T 401      16.775  15.954 -14.328  1.00 69.88     0.012 C 
ENDBRANCH  36  52
ENDBRANCH  33  36
ENDBRANCH   1  32
TORSDOF 19
ENDMDL
