MODEL 1
REMARK VINA RESULT:    -7.796      0.000      0.000
REMARK INTER + INTRA:         -21.559
REMARK INTER:                 -16.228
REMARK INTRA:                  -5.331
REMARK UNBOUND:                -5.331
REMARK  19 active torsions:
REMARK  status: ('A' for Active; 'I' for Inactive)
REMARK    1  A    between atoms: C2_2  and  C6_6 
REMARK    2  A    between atoms: C6_6  and  O7_7 
REMARK    3  A    between atoms: O7_7  and  C10_8 
REMARK       I    between atoms: C10_8  and  N11_10 
REMARK    4  A    between atoms: N11_10  and  C12_11 
REMARK    5  A    between atoms: C12_11  and  C13_12 
REMARK    6  A    between atoms: C12_11  and  C26_15 
REMARK    7  A    between atoms: C13_12  and  C14_13 
REMARK    8  A    between atoms: C13_12  and  O41_22 
REMARK    9  A    between atoms: C14_13  and  C15_14 
REMARK   10  A    between atoms: C15_14  and  C44_23 
REMARK   11  A    between atoms: C15_14  and  N58_30 
REMARK   12  A    between atoms: C26_15  and  C28_16 
REMARK   13  A    between atoms: C44_23  and  C45_24 
REMARK       I    between atoms: N58_30  and  C18_33 
REMARK   14  A    between atoms: N20_31  and  C19_32 
REMARK       I    between atoms: N20_31  and  C21_38 
REMARK   15  A    between atoms: C19_32  and  C18_33 
REMARK   16  A    between atoms: C19_32  and  C62_35 
REMARK       I    between atoms: C21_38  and  N74_39 
REMARK   17  A    between atoms: N74_39  and  C75_40 
REMARK   18  A    between atoms: C75_40  and  C77_42 
REMARK   19  A    between atoms: C82_45  and  C85_47 
ROOT
HETATM    1  C15   D T 401      11.318  15.853 -11.893  1.00 55.13     0.091 C 
ENDROOT
BRANCH   1   2
HETATM    2  C14   D T 401      11.137  16.517 -10.532  1.00 56.49     0.059 C 
BRANCH   2   3
HETATM    3  C13   D T 401      11.961  17.783 -10.352  1.00 52.85     0.143 C 
BRANCH   3   4
HETATM    4  C12   D T 401      13.254  17.543  -9.603  1.00 51.97     0.119 C 
BRANCH   4   5
HETATM    5  N11   D T 401      14.327  18.351 -10.142  1.00 54.53    -0.329 N 
HETATM    6  C10   D T 401      15.473  17.833 -10.552  1.00 57.55     0.361 C 
HETATM    7  O24   D T 401      15.741  16.643 -10.498  1.00 50.79    -0.238 OA
HETATM    8  H11   D T 401      14.184  19.349 -10.203  1.00 65.46     0.165 HD
BRANCH   6   9
HETATM    9  O7    D T 401      16.448  18.754 -11.080  1.00 56.36    -0.299 OA
BRANCH   9  10
HETATM   10  C6    D T 401      16.181  20.098 -10.926  1.00 61.93     0.228 C 
BRANCH  10  11
HETATM   11  C2    D T 401      17.168  20.700  -9.982  1.00 76.84     0.022 A 
HETATM   12  C1    D T 401      18.550  20.729  -9.901  1.00 77.89     0.128 A 
HETATM   13  N5    D T 401      18.958  21.438  -8.819  1.00 89.70    -0.282 NA
HETATM   14  C4    D T 401      17.952  21.956  -8.069  1.00 85.46     0.208 A 
HETATM   15  S3    D T 401      16.385  21.552  -8.714  1.00 90.97    -0.100 SA
ENDBRANCH  10  11
ENDBRANCH   9  10
ENDBRANCH   6   9
ENDBRANCH   4   5
BRANCH   4  16
HETATM   16  C26   D T 401      13.090  17.899  -8.124  1.00 53.54     0.066 C 
BRANCH  16  17
HETATM   17  C28   D T 401      13.030  16.603  -7.372  1.00 51.74    -0.056 A 
HETATM   18  C31   D T 401      11.960  16.369  -6.534  1.00 56.62     0.007 A 
HETATM   19  C32   D T 401      11.876  15.174  -5.839  1.00 61.24     0.001 A 
HETATM   20  C33   D T 401      12.855  14.207  -6.005  1.00 57.56     0.000 A 
HETATM   21  C34   D T 401      13.921  14.449  -6.864  1.00 57.29     0.001 A 
HETATM   22  C35   D T 401      14.006  15.652  -7.557  1.00 54.64     0.007 A 
ENDBRANCH  16  17
ENDBRANCH   4  16
ENDBRANCH   3   4
BRANCH   3  23
HETATM   23  O41   D T 401      12.245  18.268 -11.683  1.00 46.89    -0.393 OA
HETATM   24  HO4   D T 401      11.422  18.550 -12.106  1.00 56.30     0.210 HD
ENDBRANCH   3  23
ENDBRANCH   2   3
ENDBRANCH   1   2
BRANCH   1  25
HETATM   25  C44   D T 401      10.072  14.996 -12.080  1.00 57.31     0.063 C 
BRANCH  25  26
HETATM   26  C45   D T 401       9.865  14.739 -13.539  1.00 62.23    -0.056 A 
HETATM   27  C48   D T 401      10.532  13.692 -14.148  1.00 68.40     0.007 A 
HETATM   28  C49   D T 401      10.330  13.451 -15.501  1.00 68.89     0.001 A 
HETATM   29  C50   D T 401       9.466  14.255 -16.235  1.00 70.95     0.000 A 
HETATM   30  C51   D T 401       8.799  15.303 -15.613  1.00 69.71     0.001 A 
HETATM   31  C52   D T 401       8.998  15.544 -14.257  1.00 63.86     0.007 A 
ENDBRANCH  25  26
ENDBRANCH   1  25
BRANCH   1  32
HETATM   32  N58   D T 401      12.510  15.038 -11.956  1.00 57.14    -0.354 N 
HETATM   33  C18   D T 401      13.439  15.364 -12.851  1.00 63.33     0.241 C 
HETATM   34  O61   D T 401      13.305  16.357 -13.542  1.00 56.06    -0.271 OA
HETATM   35  H58   D T 401      12.624  14.250 -11.336  1.00 68.60     0.162 HD
BRANCH  33  36
HETATM   36  C19   D T 401      14.640  14.496 -13.013  1.00 62.97     0.181 C 
BRANCH  36  37
HETATM   37  N20   D T 401      14.423  13.046 -12.961  1.00 62.86    -0.329 N 
HETATM   38  C21   D T 401      14.915  12.297 -12.001  1.00 67.85     0.319 C 
HETATM   39  N74   D T 401      14.352  11.134 -11.740  1.00 70.47    -0.333 N 
HETATM   40  O76   D T 401      15.845  12.680 -11.328  1.00 58.01    -0.247 OA
HETATM   41  C95   D T 401      13.480  10.409 -12.635  1.00 68.34     0.154 C 
HETATM   42  H20   D T 401      13.875  12.621 -13.696  1.00 75.47     0.165 HD
BRANCH  39  43
HETATM   43  C75   D T 401      14.574  10.479 -10.453  1.00 68.98     0.183 C 
BRANCH  43  44
HETATM   44  C77   D T 401      13.217  10.446  -9.818  1.00 78.58     0.047 A 
HETATM   45  C80   D T 401      12.535   9.260  -9.622  1.00 85.18     0.122 A 
HETATM   46  S81   D T 401      10.990   9.519  -8.890  1.00 94.63    -0.102 SA
HETATM   47  C82   D T 401      11.350  11.204  -8.909  1.00 83.84     0.075 A 
HETATM   48  N83   D T 401      12.537  11.530  -9.432  1.00 84.20    -0.252 NA
BRANCH  47  49
HETATM   49  C85   D T 401      10.300  12.048  -8.345  1.00 85.08     0.036 C 
HETATM   50  C86   D T 401      10.267  11.775  -6.892  1.00 89.40     0.016 C 
HETATM   51  C90   D T 401      10.521  13.474  -8.784  1.00 90.17     0.016 C 
ENDBRANCH  47  49
ENDBRANCH  43  44
ENDBRANCH  39  43
ENDBRANCH  36  37
BRANCH  36  52
HETATM   52  C62   D T 401      15.160  14.690 -14.441  1.00 69.84     0.009 C 
HETATM   53  C64   D T 401      16.664  14.531 -14.549  1.00 64.64     0.012 C 
HETATM   54  C68   D T 401      14.469  13.725 -15.400  1.00 69.88     0.012 C 
ENDBRANCH  36  52
ENDBRANCH  33  36
ENDBRANCH   1  32
TORSDOF 19
ENDMDL
MODEL 2
REMARK VINA RESULT:    -7.750      2.358      7.749
REMARK INTER + INTRA:         -21.463
REMARK INTER:                 -16.241
REMARK INTRA:                  -5.222
REMARK UNBOUND:                -5.331
REMARK  19 active torsions:
REMARK  status: ('A' for Active; 'I' for Inactive)
REMARK    1  A    between atoms: C2_2  and  C6_6 
REMARK    2  A    between atoms: C6_6  and  O7_7 
REMARK    3  A    between atoms: O7_7  and  C10_8 
REMARK       I    between atoms: C10_8  and  N11_10 
REMARK    4  A    between atoms: N11_10  and  C12_11 
REMARK    5  A    between atoms: C12_11  and  C13_12 
REMARK    6  A    between atoms: C12_11  and  C26_15 
REMARK    7  A    between atoms: C13_12  and  C14_13 
REMARK    8  A    between atoms: C13_12  and  O41_22 
REMARK    9  A    between atoms: C14_13  and  C15_14 
REMARK   10  A    between atoms: C15_14  and  C44_23 
REMARK   11  A    between atoms: C15_14  and  N58_30 
REMARK   12  A    between atoms: C26_15  and  C28_16 
REMARK   13  A    between atoms: C44_23  and  C45_24 
REMARK       I    between atoms: N58_30  and  C18_33 
REMARK   14  A    between atoms: N20_31  and  C19_32 
REMARK       I    between atoms: N20_31  and  C21_38 
REMARK   15  A    between atoms: C19_32  and  C18_33 
REMARK   16  A    between atoms: C19_32  and  C62_35 
REMARK       I    between atoms: C21_38  and  N74_39 
REMARK   17  A    between atoms: N74_39  and  C75_40 
REMARK   18  A    between atoms: C75_40  and  C77_42 
REMARK   19  A    between atoms: C82_45  and  C85_47 
ROOT
HETATM    1  C15   D T 401      14.087  16.787 -11.905  1.00 55.13     0.091 C 
ENDROOT
BRANCH   1   2
HETATM    2  C14   D T 401      13.007  16.826 -10.829  1.00 56.49     0.059 C 
BRANCH   2   3
HETATM    3  C13   D T 401      11.589  16.838 -11.382  1.00 52.85     0.143 C 
BRANCH   3   4
HETATM    4  C12   D T 401      10.978  15.456 -11.469  1.00 51.97     0.119 C 
BRANCH   4   5
HETATM    5  N11   D T 401      10.552  14.992 -10.166  1.00 54.53    -0.329 N 
HETATM    6  C10   D T 401      11.206  14.059  -9.492  1.00 57.55     0.361 C 
HETATM    7  O24   D T 401      12.205  13.494  -9.906  1.00 50.79    -0.238 OA
HETATM    8  H11   D T 401       9.722  15.403  -9.765  1.00 65.46     0.165 HD
BRANCH   6   9
HETATM    9  O7    D T 401      10.676  13.705  -8.199  1.00 56.36    -0.299 OA
BRANCH   9  10
HETATM   10  C6    D T 401      11.373  12.758  -7.479  1.00 61.93     0.228 C 
BRANCH  10  11
HETATM   11  C2    D T 401      10.459  11.638  -7.106  1.00 76.84     0.022 A 
HETATM   12  C1    D T 401       9.574  11.405  -6.067  1.00 77.89     0.128 A 
HETATM   13  N5    D T 401       8.972  10.197  -6.205  1.00 89.70    -0.282 NA
HETATM   14  C4    D T 401       9.352   9.497  -7.304  1.00 85.46     0.208 A 
HETATM   15  S3    D T 401      10.539  10.357  -8.245  1.00 90.97    -0.100 SA
ENDBRANCH  10  11
ENDBRANCH   9  10
ENDBRANCH   6   9
ENDBRANCH   4   5
BRANCH   4  16
HETATM   16  C26   D T 401       9.758  15.466 -12.391  1.00 53.54     0.066 C 
BRANCH  16  17
HETATM   17  C28   D T 401      10.064  14.532 -13.523  1.00 51.74    -0.056 A 
HETATM   18  C31   D T 401       9.628  14.857 -14.791  1.00 56.62     0.007 A 
HETATM   19  C32   D T 401       9.910  14.017 -15.855  1.00 61.24     0.001 A 
HETATM   20  C33   D T 401      10.650  12.863 -15.647  1.00 57.56     0.000 A 
HETATM   21  C34   D T 401      11.096  12.554 -14.368  1.00 57.29     0.001 A 
HETATM   22  C35   D T 401      10.807  13.397 -13.300  1.00 54.64     0.007 A 
ENDBRANCH  16  17
ENDBRANCH   4  16
ENDBRANCH   3   4
BRANCH   3  23
HETATM   23  O41   D T 401      10.817  17.664 -10.484  1.00 46.89    -0.393 OA
HETATM   24  HO4   D T 401      10.236  18.243 -10.996  1.00 56.30     0.210 HD
ENDBRANCH   3  23
ENDBRANCH   2   3
ENDBRANCH   1   2
BRANCH   1  25
HETATM   25  C44   D T 401      14.526  15.329 -11.968  1.00 57.31     0.063 C 
BRANCH  25  26
HETATM   26  C45   D T 401      14.373  14.828 -13.368  1.00 62.23    -0.056 A 
HETATM   27  C48   D T 401      14.911  13.603 -13.717  1.00 68.40     0.007 A 
HETATM   28  C49   D T 401      14.759  13.136 -15.016  1.00 68.89     0.001 A 
HETATM   29  C50   D T 401      14.071  13.895 -15.957  1.00 70.95     0.000 A 
HETATM   30  C51   D T 401      13.532  15.123 -15.596  1.00 69.71     0.001 A 
HETATM   31  C52   D T 401      13.681  15.591 -14.294  1.00 63.86     0.007 A 
ENDBRANCH  25  26
ENDBRANCH   1  25
BRANCH   1  32
HETATM   32  N58   D T 401      15.209  17.644 -11.594  1.00 57.14    -0.354 N 
HETATM   33  C18   D T 401      15.639  18.473 -12.541  1.00 63.33     0.241 C 
HETATM   34  O61   D T 401      15.056  18.544 -13.607  1.00 56.06    -0.271 OA
HETATM   35  H58   D T 401      15.644  17.606 -10.684  1.00 68.60     0.162 HD
BRANCH  33  36
HETATM   36  C19   D T 401      16.850  19.306 -12.294  1.00 62.97     0.181 C 
BRANCH  36  37
HETATM   37  N20   D T 401      17.463  19.209 -10.965  1.00 62.86    -0.329 N 
HETATM   38  C21   D T 401      17.142  20.021  -9.983  1.00 67.85     0.319 C 
HETATM   39  N74   D T 401      17.355  19.642  -8.739  1.00 70.47    -0.333 N 
HETATM   40  O76   D T 401      16.616  21.088 -10.207  1.00 58.01    -0.247 OA
HETATM   41  C95   D T 401      18.250  18.584  -8.330  1.00 68.34     0.154 C 
HETATM   42  H20   D T 401      18.154  18.488 -10.811  1.00 75.47     0.165 HD
BRANCH  39  43
HETATM   43  C75   D T 401      16.650  20.294  -7.638  1.00 68.98     0.183 C 
BRANCH  43  44
HETATM   44  C77   D T 401      15.382  19.509  -7.498  1.00 78.58     0.047 A 
HETATM   45  C80   D T 401      14.195  20.108  -7.117  1.00 85.18     0.122 A 
HETATM   46  S81   D T 401      12.901  18.966  -7.016  1.00 94.63    -0.102 SA
HETATM   47  C82   D T 401      14.037  17.754  -7.474  1.00 83.84     0.075 A 
HETATM   48  N83   D T 401      15.286  18.188  -7.678  1.00 84.20    -0.252 NA
BRANCH  47  49
HETATM   49  C85   D T 401      13.473  16.411  -7.579  1.00 85.08     0.036 C 
HETATM   50  C86   D T 401      14.609  15.484  -7.772  1.00 89.40     0.016 C 
HETATM   51  C90   D T 401      12.561  16.164  -6.404  1.00 90.17     0.016 C 
ENDBRANCH  47  49
ENDBRANCH  43  44
ENDBRANCH  39  43
ENDBRANCH  36  37
BRANCH  36  52
HETATM   52  C62   D T 401      17.967  18.775 -13.199  1.00 69.84     0.009 C 
HETATM   53  C64   D T 401      19.144  19.724 -13.303  1.00 64.64     0.012 C 
HETATM   54  C68   D T 401      18.447  17.409 -12.715  1.00 69.88     0.012 C 
ENDBRANCH  36  52
ENDBRANCH  33  36
ENDBRANCH   1  32
TORSDOF 19
ENDMDL
MODEL 3
REMARK VINA RESULT:    -7.528      2.201      7.494
REMARK INTER + INTRA:         -21.001
REMARK INTER:                 -17.343
REMARK INTRA:                  -3.658
REMARK UNBOUND:                -5.331
REMARK  19 active torsions:
REMARK  status: ('A' for Active; 'I' for Inactive)
REMARK    1  A    between atoms: C2_2  and  C6_6 
REMARK    2  A    between atoms: C6_6  and  O7_7 
REMARK    3  A    between atoms: O7_7  and  C10_8 
REMARK       I    between atoms: C10_8  and  N11_10 
REMARK    4  A    between atoms: N11_10  and  C12_11 
REMARK    5  A    between atoms: C12_11  and  C13_12 
REMARK    6  A    between atoms: C12_11  and  C26_15 
REMARK    7  A    between atoms: C13_12  and  C14_13 
REMARK    8  A    between atoms: C13_12  and  O41_22 
REMARK    9  A    between atoms: C14_13  and  C15_14 
REMARK   10  A    between atoms: C15_14  and  C44_23 
REMARK   11  A    between atoms: C15_14  and  N58_30 
REMARK   12  A    between atoms: C26_15  and  C28_16 
REMARK   13  A    between atoms: C44_23  and  C45_24 
REMARK       I    between atoms: N58_30  and  C18_33 
REMARK   14  A    between atoms: N20_31  and  C19_32 
REMARK       I    between atoms: N20_31  and  C21_38 
REMARK   15  A    between atoms: C19_32  and  C18_33 
REMARK   16  A    between atoms: C19_32  and  C62_35 
REMARK       I    between atoms: C21_38  and  N74_39 
REMARK   17  A    between atoms: N74_39  and  C75_40 
REMARK   18  A    between atoms: C75_40  and  C77_42 
REMARK   19  A    between atoms: C82_45  and  C85_47 
ROOT
HETATM    1  C15   D T 401      11.473  14.871 -12.405  1.00 55.13     0.091 C 
ENDROOT
BRANCH   1   2
HETATM    2  C14   D T 401      11.059  14.822 -10.938  1.00 56.49     0.059 C 
BRANCH   2   3
HETATM    3  C13   D T 401      11.079  16.178 -10.249  1.00 52.85     0.143 C 
BRANCH   3   4
HETATM    4  C12   D T 401      11.966  16.205  -9.023  1.00 51.97     0.119 C 
BRANCH   4   5
HETATM    5  N11   D T 401      12.225  14.866  -8.538  1.00 54.53    -0.329 N 
HETATM    6  C10   D T 401      11.840  14.455  -7.340  1.00 57.55     0.361 C 
HETATM    7  O24   D T 401      11.256  15.160  -6.533  1.00 50.79    -0.238 OA
HETATM    8  H11   D T 401      12.720  14.230  -9.146  1.00 65.46     0.165 HD
BRANCH   6   9
HETATM    9  O7    D T 401      12.153  13.091  -6.994  1.00 56.36    -0.299 OA
BRANCH   9  10
HETATM   10  C6    D T 401      11.810  12.121  -7.913  1.00 61.93     0.228 C 
BRANCH  10  11
HETATM   11  C2    D T 401      10.417  11.655  -7.654  1.00 76.84     0.022 A 
HETATM   12  C1    D T 401       9.733  11.190  -6.543  1.00 77.89     0.128 A 
HETATM   13  N5    D T 401       8.445  10.896  -6.854  1.00 89.70    -0.282 NA
HETATM   14  C4    D T 401       8.111  11.118  -8.151  1.00 85.46     0.208 A 
HETATM   15  S3    D T 401       9.457  11.722  -9.076  1.00 90.97    -0.100 SA
ENDBRANCH  10  11
ENDBRANCH   9  10
ENDBRANCH   6   9
ENDBRANCH   4   5
BRANCH   4  16
HETATM   16  C26   D T 401      13.310  16.860  -9.348  1.00 53.54     0.066 C 
BRANCH  16  17
HETATM   17  C28   D T 401      13.484  17.990  -8.379  1.00 51.74    -0.056 A 
HETATM   18  C31   D T 401      14.731  18.566  -8.245  1.00 56.62     0.007 A 
HETATM   19  C32   D T 401      14.915  19.620  -7.366  1.00 61.24     0.001 A 
HETATM   20  C33   D T 401      13.840  20.109  -6.640  1.00 57.56     0.000 A 
HETATM   21  C34   D T 401      12.586  19.530  -6.794  1.00 57.29     0.001 A 
HETATM   22  C35   D T 401      12.405  18.468  -7.674  1.00 54.64     0.007 A 
ENDBRANCH  16  17
ENDBRANCH   4  16
ENDBRANCH   3   4
BRANCH   3  23
HETATM   23  O41   D T 401      11.566  17.119 -11.232  1.00 46.89    -0.393 OA
HETATM   24  HO4   D T 401      12.444  17.430 -10.974  1.00 56.30     0.210 HD
ENDBRANCH   3  23
ENDBRANCH   2   3
ENDBRANCH   1   2
BRANCH   1  25
HETATM   25  C44   D T 401      10.820  13.648 -13.038  1.00 57.31     0.063 C 
BRANCH  25  26
HETATM   26  C45   D T 401      10.072  14.068 -14.263  1.00 62.23    -0.056 A 
HETATM   27  C48   D T 401      10.151  13.296 -15.407  1.00 68.40     0.007 A 
HETATM   28  C49   D T 401       9.448  13.685 -16.541  1.00 68.89     0.001 A 
HETATM   29  C50   D T 401       8.672  14.838 -16.523  1.00 70.95     0.000 A 
HETATM   30  C51   D T 401       8.597  15.605 -15.367  1.00 69.71     0.001 A 
HETATM   31  C52   D T 401       9.299  15.216 -14.230  1.00 63.86     0.007 A 
ENDBRANCH  25  26
ENDBRANCH   1  25
BRANCH   1  32
HETATM   32  N58   D T 401      12.908  14.827 -12.576  1.00 57.14    -0.354 N 
HETATM   33  C18   D T 401      13.442  15.573 -13.540  1.00 63.33     0.241 C 
HETATM   34  O61   D T 401      12.741  16.313 -14.204  1.00 56.06    -0.271 OA
HETATM   35  H58   D T 401      13.477  14.245 -11.978  1.00 68.60     0.162 HD
BRANCH  33  36
HETATM   36  C19   D T 401      14.905  15.485 -13.811  1.00 62.97     0.181 C 
BRANCH  36  37
HETATM   37  N20   D T 401      15.788  16.293 -12.963  1.00 62.86    -0.329 N 
HETATM   38  C21   D T 401      15.902  17.594 -13.108  1.00 67.85     0.319 C 
HETATM   39  N74   D T 401      16.325  18.319 -12.092  1.00 70.47    -0.333 N 
HETATM   40  O76   D T 401      15.584  18.133 -14.144  1.00 58.01    -0.247 OA
HETATM   41  C95   D T 401      17.039  17.812 -10.943  1.00 68.34     0.154 C 
HETATM   42  H20   D T 401      16.320  15.822 -12.246  1.00 75.47     0.165 HD
BRANCH  39  43
HETATM   43  C75   D T 401      16.071  19.757 -12.057  1.00 68.98     0.183 C 
BRANCH  43  44
HETATM   44  C77   D T 401      17.186  20.308 -11.221  1.00 78.58     0.047 A 
HETATM   45  C80   D T 401      18.469  20.444 -11.719  1.00 85.18     0.122 A 
HETATM   46  S81   D T 401      19.555  21.084 -10.536  1.00 94.63    -0.102 SA
HETATM   47  C82   D T 401      18.224  21.112  -9.442  1.00 83.84     0.075 A 
HETATM   48  N83   D T 401      17.064  20.668  -9.940  1.00 84.20    -0.252 NA
BRANCH  47  49
HETATM   49  C85   D T 401      18.550  21.623  -8.113  1.00 85.08     0.036 C 
HETATM   50  C86   D T 401      17.696  22.810  -7.891  1.00 89.40     0.016 C 
HETATM   51  C90   D T 401      18.457  20.498  -7.114  1.00 90.17     0.016 C 
ENDBRANCH  47  49
ENDBRANCH  43  44
ENDBRANCH  39  43
ENDBRANCH  36  37
BRANCH  36  52
HETATM   52  C62   D T 401      15.353  14.059 -13.470  1.00 69.84     0.009 C 
HETATM   53  C64   D T 401      15.792  13.272 -14.688  1.00 64.64     0.012 C 
HETATM   54  C68   D T 401      16.476  14.082 -12.438  1.00 69.88     0.012 C 
ENDBRANCH  36  52
ENDBRANCH  33  36
ENDBRANCH   1  32
TORSDOF 19
ENDMDL
MODEL 4
REMARK VINA RESULT:    -7.526      2.764      9.096
REMARK INTER + INTRA:         -20.996
REMARK INTER:                 -17.095
REMARK INTRA:                  -3.901
REMARK UNBOUND:                -5.331
REMARK  19 active torsions:
REMARK  status: ('A' for Active; 'I' for Inactive)
REMARK    1  A    between atoms: C2_2  and  C6_6 
REMARK    2  A    between atoms: C6_6  and  O7_7 
REMARK    3  A    between atoms: O7_7  and  C10_8 
REMARK       I    between atoms: C10_8  and  N11_10 
REMARK    4  A    between atoms: N11_10  and  C12_11 
REMARK    5  A    between atoms: C12_11  and  C13_12 
REMARK    6  A    between atoms: C12_11  and  C26_15 
REMARK    7  A    between atoms: C13_12  and  C14_13 
REMARK    8  A    between atoms: C13_12  and  O41_22 
REMARK    9  A    between atoms: C14_13  and  C15_14 
REMARK   10  A    between atoms: C15_14  and  C44_23 
REMARK   11  A    between atoms: C15_14  and  N58_30 
REMARK   12  A    between atoms: C26_15  and  C28_16 
REMARK   13  A    between atoms: C44_23  and  C45_24 
REMARK       I    between atoms: N58_30  and  C18_33 
REMARK   14  A    between atoms: N20_31  and  C19_32 
REMARK       I    between atoms: N20_31  and  C21_38 
REMARK   15  A    between atoms: C19_32  and  C18_33 
REMARK   16  A    between atoms: C19_32  and  C62_35 
REMARK       I    between atoms: C21_38  and  N74_39 
REMARK   17  A    between atoms: N74_39  and  C75_40 
REMARK   18  A    between atoms: C75_40  and  C77_42 
REMARK   19  A    between atoms: C82_45  and  C85_47 
ROOT
HETATM    1  C15   D T 401      12.786  15.606  -9.389  1.00 55.13     0.091 C 
ENDROOT
BRANCH   1   2
HETATM    2  C14   D T 401      12.765  15.342 -10.891  1.00 56.49     0.059 C 
BRANCH   2   3
HETATM    3  C13   D T 401      12.494  13.890 -11.256  1.00 52.85     0.143 C 
BRANCH   3   4
HETATM    4  C12   D T 401      11.287  13.722 -12.153  1.00 51.97     0.119 C 
BRANCH   4   5
HETATM    5  N11   D T 401      10.141  13.255 -11.403  1.00 54.53    -0.329 N 
HETATM    6  C10   D T 401       9.950  11.977 -11.114  1.00 57.55     0.361 C 
HETATM    7  O24   D T 401      10.701  11.081 -11.463  1.00 50.79    -0.238 OA
HETATM    8  H11   D T 401       9.467  13.940 -11.093  1.00 65.46     0.165 HD
BRANCH   6   9
HETATM    9  O7    D T 401       8.773  11.657 -10.347  1.00 56.36    -0.299 OA
BRANCH   9  10
HETATM   10  C6    D T 401       8.466  10.320 -10.207  1.00 61.93     0.228 C 
BRANCH  10  11
HETATM   11  C2    D T 401       8.612   9.919  -8.777  1.00 76.84     0.022 A 
HETATM   12  C1    D T 401       9.436   9.046  -8.087  1.00 77.89     0.128 A 
HETATM   13  N5    D T 401       9.153   9.058  -6.761  1.00 89.70    -0.282 NA
HETATM   14  C4    D T 401       8.153   9.903  -6.403  1.00 85.46     0.208 A 
HETATM   15  S3    D T 401       7.491  10.747  -7.775  1.00 90.97    -0.100 SA
ENDBRANCH  10  11
ENDBRANCH   9  10
ENDBRANCH   6   9
ENDBRANCH   4   5
BRANCH   4  16
HETATM   16  C26   D T 401      10.915  15.055 -12.807  1.00 53.54     0.066 C 
BRANCH  16  17
HETATM   17  C28   D T 401      10.265  14.726 -14.117  1.00 51.74    -0.056 A 
HETATM   18  C31   D T 401      10.736  13.652 -14.843  1.00 56.62     0.007 A 
HETATM   19  C32   D T 401      10.145  13.321 -16.050  1.00 61.24     0.001 A 
HETATM   20  C33   D T 401       9.065  14.056 -16.515  1.00 57.56     0.000 A 
HETATM   21  C34   D T 401       8.591  15.127 -15.768  1.00 57.29     0.001 A 
HETATM   22  C35   D T 401       9.190  15.461 -14.558  1.00 54.64     0.007 A 
ENDBRANCH  16  17
ENDBRANCH   4  16
ENDBRANCH   3   4
BRANCH   3  23
HETATM   23  O41   D T 401      13.681  13.420 -11.932  1.00 46.89    -0.393 OA
HETATM   24  HO4   D T 401      13.908  14.030 -12.647  1.00 56.30     0.210 HD
ENDBRANCH   3  23
ENDBRANCH   2   3
ENDBRANCH   1   2
BRANCH   1  25
HETATM   25  C44   D T 401      11.328  15.524  -8.955  1.00 57.31     0.063 C 
BRANCH  25  26
HETATM   26  C45   D T 401      11.220  14.636  -7.757  1.00 62.23    -0.056 A 
HETATM   27  C48   D T 401      10.898  13.302  -7.923  1.00 68.40     0.007 A 
HETATM   28  C49   D T 401      10.807  12.479  -6.807  1.00 68.89     0.001 A 
HETATM   29  C50   D T 401      11.039  12.992  -5.536  1.00 70.95     0.000 A 
HETATM   30  C51   D T 401      11.364  14.334  -5.381  1.00 69.71     0.001 A 
HETATM   31  C52   D T 401      11.458  15.159  -6.497  1.00 63.86     0.007 A 
ENDBRANCH  25  26
ENDBRANCH   1  25
BRANCH   1  32
HETATM   32  N58   D T 401      13.342  16.900  -9.063  1.00 57.14    -0.354 N 
HETATM   33  C18   D T 401      14.313  16.948  -8.155  1.00 63.33     0.241 C 
HETATM   34  O61   D T 401      14.753  15.922  -7.670  1.00 56.06    -0.271 OA
HETATM   35  H58   D T 401      12.998  17.733  -9.517  1.00 68.60     0.162 HD
BRANCH  33  36
HETATM   36  C19   D T 401      14.848  18.270  -7.721  1.00 62.97     0.181 C 
BRANCH  36  37
HETATM   37  N20   D T 401      15.486  19.098  -8.750  1.00 62.86    -0.329 N 
HETATM   38  C21   D T 401      16.670  18.815  -9.244  1.00 67.85     0.319 C 
HETATM   39  N74   D T 401      17.001  19.286 -10.430  1.00 70.47    -0.333 N 
HETATM   40  O76   D T 401      17.437  18.094  -8.646  1.00 58.01    -0.247 OA
HETATM   41  C95   D T 401      16.357  20.394 -11.098  1.00 68.34     0.154 C 
HETATM   42  H20   D T 401      14.988  19.912  -9.081  1.00 75.47     0.165 HD
BRANCH  39  43
HETATM   43  C75   D T 401      18.088  18.673 -11.190  1.00 68.98     0.183 C 
BRANCH  43  44
HETATM   44  C77   D T 401      17.392  17.882 -12.255  1.00 78.58     0.047 A 
HETATM   45  C80   D T 401      18.044  16.892 -12.968  1.00 85.18     0.122 A 
HETATM   46  S81   D T 401      17.010  16.158 -14.143  1.00 94.63    -0.102 SA
HETATM   47  C82   D T 401      15.774  17.237 -13.616  1.00 83.84     0.075 A 
HETATM   48  N83   D T 401      16.127  18.078 -12.638  1.00 84.20    -0.252 NA
BRANCH  47  49
HETATM   49  C85   D T 401      14.501  17.079 -14.316  1.00 85.08     0.036 C 
HETATM   50  C86   D T 401      14.364  15.640 -14.632  1.00 89.40     0.016 C 
HETATM   51  C90   D T 401      13.407  17.724 -13.504  1.00 90.17     0.016 C 
ENDBRANCH  47  49
ENDBRANCH  43  44
ENDBRANCH  39  43
ENDBRANCH  36  37
BRANCH  36  52
HETATM   52  C62   D T 401      13.655  19.138  -7.308  1.00 69.84     0.009 C 
HETATM   53  C64   D T 401      12.960  18.630  -6.059  1.00 64.64     0.012 C 
HETATM   54  C68   D T 401      14.089  20.586  -7.104  1.00 69.88     0.012 C 
ENDBRANCH  36  52
ENDBRANCH  33  36
ENDBRANCH   1  32
TORSDOF 19
ENDMDL
MODEL 5
REMARK VINA RESULT:    -7.517      2.747      9.173
REMARK INTER + INTRA:         -20.978
REMARK INTER:                 -16.348
REMARK INTRA:                  -4.630
REMARK UNBOUND:                -5.331
REMARK  19 active torsions:
REMARK  status: ('A' for Active; 'I' for Inactive)
REMARK    1  A    between atoms: C2_2  and  C6_6 
REMARK    2  A    between atoms: C6_6  and  O7_7 
REMARK    3  A    between atoms: O7_7  and  C10_8 
REMARK       I    between atoms: C10_8  and  N11_10 
REMARK    4  A    between atoms: N11_10  and  C12_11 
REMARK    5  A    between atoms: C12_11  and  C13_12 
REMARK    6  A    between atoms: C12_11  and  C26_15 
REMARK    7  A    between atoms: C13_12  and  C14_13 
REMARK    8  A    between atoms: C13_12  and  O41_22 
REMARK    9  A    between atoms: C14_13  and  C15_14 
REMARK   10  A    between atoms: C15_14  and  C44_23 
REMARK   11  A    between atoms: C15_14  and  N58_30 
REMARK   12  A    between atoms: C26_15  and  C28_16 
REMARK   13  A    between atoms: C44_23  and  C45_24 
REMARK       I    between atoms: N58_30  and  C18_33 
REMARK   14  A    between atoms: N20_31  and  C19_32 
REMARK       I    between atoms: N20_31  and  C21_38 
REMARK   15  A    between atoms: C19_32  and  C18_33 
REMARK   16  A    between atoms: C19_32  and  C62_35 
REMARK       I    between atoms: C21_38  and  N74_39 
REMARK   17  A    between atoms: N74_39  and  C75_40 
REMARK   18  A    between atoms: C75_40  and  C77_42 
REMARK   19  A    between atoms: C82_45  and  C85_47 
ROOT
HETATM    1  C15   D T 401      13.587  15.862 -10.547  1.00 55.13     0.091 C 
ENDROOT
BRANCH   1   2
HETATM    2  C14   D T 401      12.604  14.735 -10.245  1.00 56.49     0.059 C 
BRANCH   2   3
HETATM    3  C13   D T 401      11.150  15.106 -10.495  1.00 52.85     0.143 C 
BRANCH   3   4
HETATM    4  C12   D T 401      10.533  14.334 -11.642  1.00 51.97     0.119 C 
BRANCH   4   5
HETATM    5  N11   D T 401       9.666  13.282 -11.155  1.00 54.53    -0.329 N 
HETATM    6  C10   D T 401      10.067  12.027 -11.035  1.00 57.55     0.361 C 
HETATM    7  O24   D T 401      11.183  11.636 -11.336  1.00 50.79    -0.238 OA
HETATM    8  H11   D T 401       8.720  13.528 -10.900  1.00 65.46     0.165 HD
BRANCH   6   9
HETATM    9  O7    D T 401       9.102  11.086 -10.522  1.00 56.36    -0.299 OA
BRANCH   9  10
HETATM   10  C6    D T 401       8.471  11.421  -9.343  1.00 61.93     0.228 C 
BRANCH  10  11
HETATM   11  C2    D T 401       8.201  10.186  -8.550  1.00 76.84     0.022 A 
HETATM   12  C1    D T 401       7.342   9.108  -8.684  1.00 77.89     0.128 A 
HETATM   13  N5    D T 401       7.502   8.230  -7.663  1.00 89.70    -0.282 NA
HETATM   14  C4    D T 401       8.447   8.585  -6.754  1.00 85.46     0.208 A 
HETATM   15  S3    D T 401       9.199  10.103  -7.157  1.00 90.97    -0.100 SA
ENDBRANCH  10  11
ENDBRANCH   9  10
ENDBRANCH   6   9
ENDBRANCH   4   5
BRANCH   4  16
HETATM   16  C26   D T 401       9.700  15.263 -12.527  1.00 53.54     0.066 C 
BRANCH  16  17
HETATM   17  C28   D T 401       9.760  14.704 -13.916  1.00 51.74    -0.056 A 
HETATM   18  C31   D T 401       8.953  15.255 -14.891  1.00 56.62     0.007 A 
HETATM   19  C32   D T 401       9.000  14.764 -16.185  1.00 61.24     0.001 A 
HETATM   20  C33   D T 401       9.874  13.736 -16.503  1.00 57.56     0.000 A 
HETATM   21  C34   D T 401      10.691  13.198 -15.515  1.00 57.29     0.001 A 
HETATM   22  C35   D T 401      10.638  13.690 -14.215  1.00 54.64     0.007 A 
ENDBRANCH  16  17
ENDBRANCH   4  16
ENDBRANCH   3   4
BRANCH   3  23
HETATM   23  O41   D T 401      10.446  14.814  -9.268  1.00 46.89    -0.393 OA
HETATM   24  HO4   D T 401      10.532  15.562  -8.661  1.00 56.30     0.210 HD
ENDBRANCH   3  23
ENDBRANCH   2   3
ENDBRANCH   1   2
BRANCH   1  25
HETATM   25  C44   D T 401      14.727  15.196 -11.306  1.00 57.31     0.063 C 
BRANCH  25  26
HETATM   26  C45   D T 401      14.392  15.156 -12.763  1.00 62.23    -0.056 A 
HETATM   27  C48   D T 401      13.694  16.206 -13.331  1.00 68.40     0.007 A 
HETATM   28  C49   D T 401      13.392  16.170 -14.687  1.00 68.89     0.001 A 
HETATM   29  C50   D T 401      13.789  15.087 -15.464  1.00 70.95     0.000 A 
HETATM   30  C51   D T 401      14.491  14.039 -14.884  1.00 69.71     0.001 A 
HETATM   31  C52   D T 401      14.797  14.075 -13.527  1.00 63.86     0.007 A 
ENDBRANCH  25  26
ENDBRANCH   1  25
BRANCH   1  32
HETATM   32  N58   D T 401      14.080  16.501  -9.347  1.00 57.14    -0.354 N 
HETATM   33  C18   D T 401      13.529  17.658  -8.988  1.00 63.33     0.241 C 
HETATM   34  O61   D T 401      12.597  18.118  -9.622  1.00 56.06    -0.271 OA
HETATM   35  H58   D T 401      14.818  16.074  -8.807  1.00 68.60     0.162 HD
BRANCH  33  36
HETATM   36  C19   D T 401      14.071  18.396  -7.812  1.00 62.97     0.181 C 
BRANCH  36  37
HETATM   37  N20   D T 401      14.980  19.512  -8.089  1.00 62.86    -0.329 N 
HETATM   38  C21   D T 401      16.254  19.330  -8.357  1.00 67.85     0.319 C 
HETATM   39  N74   D T 401      16.911  20.261  -9.019  1.00 70.47    -0.333 N 
HETATM   40  O76   D T 401      16.814  18.305  -8.041  1.00 58.01    -0.247 OA
HETATM   41  C95   D T 401      16.491  21.636  -9.166  1.00 68.34     0.154 C 
HETATM   42  H20   D T 401      14.602  20.449  -8.072  1.00 75.47     0.165 HD
BRANCH  39  43
HETATM   43  C75   D T 401      18.165  19.938  -9.695  1.00 68.98     0.183 C 
BRANCH  43  44
HETATM   44  C77   D T 401      17.738  19.238 -10.949  1.00 78.58     0.047 A 
HETATM   45  C80   D T 401      16.815  19.795 -11.815  1.00 85.18     0.122 A 
HETATM   46  S81   D T 401      16.494  18.763 -13.165  1.00 94.63    -0.102 SA
HETATM   47  C82   D T 401      17.605  17.642 -12.473  1.00 83.84     0.075 A 
HETATM   48  N83   D T 401      18.160  18.024 -11.318  1.00 84.20    -0.252 NA
BRANCH  47  49
HETATM   49  C85   D T 401      17.788  16.420 -13.253  1.00 85.08     0.036 C 
HETATM   50  C86   D T 401      17.201  16.674 -14.587  1.00 89.40     0.016 C 
HETATM   51  C90   D T 401      19.236  16.007 -13.193  1.00 90.17     0.016 C 
ENDBRANCH  47  49
ENDBRANCH  43  44
ENDBRANCH  39  43
ENDBRANCH  36  37
BRANCH  36  52
HETATM   52  C62   D T 401      12.895  19.104  -7.131  1.00 69.84     0.009 C 
HETATM   53  C64   D T 401      12.396  18.369  -5.902  1.00 64.64     0.012 C 
HETATM   54  C68   D T 401      13.273  20.534  -6.758  1.00 69.88     0.012 C 
ENDBRANCH  36  52
ENDBRANCH  33  36
ENDBRANCH   1  32
TORSDOF 19
ENDMDL
MODEL 6
REMARK VINA RESULT:    -7.466      1.406      2.022
REMARK INTER + INTRA:         -20.871
REMARK INTER:                 -15.515
REMARK INTRA:                  -5.356
REMARK UNBOUND:                -5.331
REMARK  19 active torsions:
REMARK  status: ('A' for Active; 'I' for Inactive)
REMARK    1  A    between atoms: C2_2  and  C6_6 
REMARK    2  A    between atoms: C6_6  and  O7_7 
REMARK    3  A    between atoms: O7_7  and  C10_8 
REMARK       I    between atoms: C10_8  and  N11_10 
REMARK    4  A    between atoms: N11_10  and  C12_11 
REMARK    5  A    between atoms: C12_11  and  C13_12 
REMARK    6  A    between atoms: C12_11  and  C26_15 
REMARK    7  A    between atoms: C13_12  and  C14_13 
REMARK    8  A    between atoms: C13_12  and  O41_22 
REMARK    9  A    between atoms: C14_13  and  C15_14 
REMARK   10  A    between atoms: C15_14  and  C44_23 
REMARK   11  A    between atoms: C15_14  and  N58_30 
REMARK   12  A    between atoms: C26_15  and  C28_16 
REMARK   13  A    between atoms: C44_23  and  C45_24 
REMARK       I    between atoms: N58_30  and  C18_33 
REMARK   14  A    between atoms: N20_31  and  C19_32 
REMARK       I    between atoms: N20_31  and  C21_38 
REMARK   15  A    between atoms: C19_32  and  C18_33 
REMARK   16  A    between atoms: C19_32  and  C62_35 
REMARK       I    between atoms: C21_38  and  N74_39 
REMARK   17  A    between atoms: N74_39  and  C75_40 
REMARK   18  A    between atoms: C75_40  and  C77_42 
REMARK   19  A    between atoms: C82_45  and  C85_47 
ROOT
HETATM    1  C15   D T 401      11.360  15.625 -11.828  1.00 55.13     0.091 C 
ENDROOT
BRANCH   1   2
HETATM    2  C14   D T 401      11.204  16.260 -10.451  1.00 56.49     0.059 C 
BRANCH   2   3
HETATM    3  C13   D T 401      11.925  17.592 -10.304  1.00 52.85     0.143 C 
BRANCH   3   4
HETATM    4  C12   D T 401      13.084  17.531  -9.333  1.00 51.97     0.119 C 
BRANCH   4   5
HETATM    5  N11   D T 401      14.072  18.544  -9.636  1.00 54.53    -0.329 N 
HETATM    6  C10   D T 401      15.368  18.284  -9.688  1.00 57.55     0.361 C 
HETATM    7  O24   D T 401      15.851  17.184  -9.469  1.00 50.79    -0.238 OA
HETATM    8  H11   D T 401      13.747  19.484  -9.813  1.00 65.46     0.165 HD
BRANCH   6   9
HETATM    9  O7    D T 401      16.237  19.386 -10.016  1.00 56.36    -0.299 OA
BRANCH   9  10
HETATM   10  C6    D T 401      16.104  19.930 -11.276  1.00 61.93     0.228 C 
BRANCH  10  11
HETATM   11  C2    D T 401      16.484  18.916 -12.302  1.00 76.84     0.022 A 
HETATM   12  C1    D T 401      15.800  18.209 -13.277  1.00 77.89     0.128 A 
HETATM   13  N5    D T 401      16.640  17.394 -13.964  1.00 89.70    -0.282 NA
HETATM   14  C4    D T 401      17.935  17.447 -13.562  1.00 85.46     0.208 A 
HETATM   15  S3    D T 401      18.163  18.563 -12.244  1.00 90.97    -0.100 SA
ENDBRANCH  10  11
ENDBRANCH   9  10
ENDBRANCH   6   9
ENDBRANCH   4   5
BRANCH   4  16
HETATM   16  C26   D T 401      12.596  17.758  -7.900  1.00 53.54     0.066 C 
BRANCH  16  17
HETATM   17  C28   D T 401      12.689  16.437  -7.198  1.00 51.74    -0.056 A 
HETATM   18  C31   D T 401      11.646  16.039  -6.387  1.00 56.62     0.007 A 
HETATM   19  C32   D T 401      11.703  14.818  -5.738  1.00 61.24     0.001 A 
HETATM   20  C33   D T 401      12.797  13.987  -5.923  1.00 57.56     0.000 A 
HETATM   21  C34   D T 401      13.835  14.392  -6.754  1.00 57.29     0.001 A 
HETATM   22  C35   D T 401      13.778  15.622  -7.401  1.00 54.64     0.007 A 
ENDBRANCH  16  17
ENDBRANCH   4  16
ENDBRANCH   3   4
BRANCH   3  23
HETATM   23  O41   D T 401      12.403  17.935 -11.623  1.00 46.89    -0.393 OA
HETATM   24  HO4   D T 401      12.518  17.129 -12.145  1.00 56.30     0.210 HD
ENDBRANCH   3  23
ENDBRANCH   2   3
ENDBRANCH   1   2
BRANCH   1  25
HETATM   25  C44   D T 401      10.080  14.824 -12.038  1.00 57.31     0.063 C 
BRANCH  25  26
HETATM   26  C45   D T 401       9.810  14.703 -13.504  1.00 62.23    -0.056 A 
HETATM   27  C48   D T 401       8.955  15.601 -14.116  1.00 68.40     0.007 A 
HETATM   28  C49   D T 401       8.712  15.491 -15.479  1.00 68.89     0.001 A 
HETATM   29  C50   D T 401       9.325  14.487 -16.221  1.00 70.95     0.000 A 
HETATM   30  C51   D T 401      10.185  13.592 -15.597  1.00 69.71     0.001 A 
HETATM   31  C52   D T 401      10.430  13.702 -14.232  1.00 63.86     0.007 A 
ENDBRANCH  25  26
ENDBRANCH   1  25
BRANCH   1  32
HETATM   32  N58   D T 401      12.518  14.764 -11.912  1.00 57.14    -0.354 N 
HETATM   33  C18   D T 401      13.395  14.994 -12.885  1.00 63.33     0.241 C 
HETATM   34  O61   D T 401      13.247  15.943 -13.633  1.00 56.06    -0.271 OA
HETATM   35  H58   D T 401      12.647  14.015 -11.247  1.00 68.60     0.162 HD
BRANCH  33  36
HETATM   36  C19   D T 401      14.553  14.074 -13.064  1.00 62.97     0.181 C 
BRANCH  36  37
HETATM   37  N20   D T 401      14.280  12.636 -12.970  1.00 62.86    -0.329 N 
HETATM   38  C21   D T 401      14.835  11.875 -12.053  1.00 67.85     0.319 C 
HETATM   39  N74   D T 401      14.251  10.742 -11.719  1.00 70.47    -0.333 N 
HETATM   40  O76   D T 401      15.846  12.223 -11.486  1.00 58.01    -0.247 OA
HETATM   41  C95   D T 401      13.260  10.047 -12.509  1.00 68.34     0.154 C 
HETATM   42  H20   D T 401      13.640  12.228 -13.637  1.00 75.47     0.165 HD
BRANCH  39  43
HETATM   43  C75   D T 401      14.576  10.090 -10.453  1.00 68.98     0.183 C 
BRANCH  43  44
HETATM   44  C77   D T 401      13.316  10.199  -9.649  1.00 78.58     0.047 A 
HETATM   45  C80   D T 401      12.629   9.079  -9.218  1.00 85.18     0.122 A 
HETATM   46  S81   D T 401      11.206   9.498  -8.331  1.00 94.63    -0.102 SA
HETATM   47  C82   D T 401      11.612  11.150  -8.609  1.00 83.84     0.075 A 
HETATM   48  N83   D T 401      12.728  11.353  -9.318  1.00 84.20    -0.252 NA
BRANCH  47  49
HETATM   49  C85   D T 401      10.673  12.105  -8.026  1.00 85.08     0.036 C 
HETATM   50  C86   D T 401       9.752  12.514  -9.108  1.00 89.40     0.016 C 
HETATM   51  C90   D T 401      10.068  11.507  -6.781  1.00 90.17     0.016 C 
ENDBRANCH  47  49
ENDBRANCH  43  44
ENDBRANCH  39  43
ENDBRANCH  36  37
BRANCH  36  52
HETATM   52  C62   D T 401      15.032  14.212 -14.513  1.00 69.84     0.009 C 
HETATM   53  C64   D T 401      16.510  13.917 -14.677  1.00 64.64     0.012 C 
HETATM   54  C68   D T 401      14.221  13.308 -15.436  1.00 69.88     0.012 C 
ENDBRANCH  36  52
ENDBRANCH  33  36
ENDBRANCH   1  32
TORSDOF 19
ENDMDL
MODEL 7
REMARK VINA RESULT:    -7.454      2.592      8.306
REMARK INTER + INTRA:         -20.847
REMARK INTER:                 -15.160
REMARK INTRA:                  -5.687
REMARK UNBOUND:                -5.331
REMARK  19 active torsions:
REMARK  status: ('A' for Active; 'I' for Inactive)
REMARK    1  A    between atoms: C2_2  and  C6_6 
REMARK    2  A    between atoms: C6_6  and  O7_7 
REMARK    3  A    between atoms: O7_7  and  C10_8 
REMARK       I    between atoms: C10_8  and  N11_10 
REMARK    4  A    between atoms: N11_10  and  C12_11 
REMARK    5  A    between atoms: C12_11  and  C13_12 
REMARK    6  A    between atoms: C12_11  and  C26_15 
REMARK    7  A    between atoms: C13_12  and  C14_13 
REMARK    8  A    between atoms: C13_12  and  O41_22 
REMARK    9  A    between atoms: C14_13  and  C15_14 
REMARK   10  A    between atoms: C15_14  and  C44_23 
REMARK   11  A    between atoms: C15_14  and  N58_30 
REMARK   12  A    between atoms: C26_15  and  C28_16 
REMARK   13  A    between atoms: C44_23  and  C45_24 
REMARK       I    between atoms: N58_30  and  C18_33 
REMARK   14  A    between atoms: N20_31  and  C19_32 
REMARK       I    between atoms: N20_31  and  C21_38 
REMARK   15  A    between atoms: C19_32  and  C18_33 
REMARK   16  A    between atoms: C19_32  and  C62_35 
REMARK       I    between atoms: C21_38  and  N74_39 
REMARK   17  A    between atoms: N74_39  and  C75_40 
REMARK   18  A    between atoms: C75_40  and  C77_42 
REMARK   19  A    between atoms: C82_45  and  C85_47 
ROOT
HETATM    1  C15   D T 401      13.627  17.686  -8.972  1.00 55.13     0.091 C 
ENDROOT
BRANCH   1   2
HETATM    2  C14   D T 401      12.582  17.727 -10.081  1.00 56.49     0.059 C 
BRANCH   2   3
HETATM    3  C13   D T 401      13.022  17.039 -11.365  1.00 52.85     0.143 C 
BRANCH   3   4
HETATM    4  C12   D T 401      12.359  15.694 -11.570  1.00 51.97     0.119 C 
BRANCH   4   5
HETATM    5  N11   D T 401      12.073  15.463 -12.970  1.00 54.53    -0.329 N 
HETATM    6  C10   D T 401      10.859  15.175 -13.412  1.00 57.55     0.361 C 
HETATM    7  O24   D T 401       9.882  15.059 -12.690  1.00 50.79    -0.238 OA
HETATM    8  H11   D T 401      12.838  15.525 -13.626  1.00 65.46     0.165 HD
BRANCH   6   9
HETATM    9  O7    D T 401      10.717  14.983 -14.833  1.00 56.36    -0.299 OA
BRANCH   9  10
HETATM   10  C6    D T 401      10.244  13.757 -15.252  1.00 61.93     0.228 C 
BRANCH  10  11
HETATM   11  C2    D T 401      11.347  12.991 -15.903  1.00 76.84     0.022 A 
HETATM   12  C1    D T 401      12.533  13.329 -16.530  1.00 77.89     0.128 A 
HETATM   13  N5    D T 401      13.191  12.221 -16.955  1.00 89.70    -0.282 NA
HETATM   14  C4    D T 401      12.564  11.049 -16.678  1.00 85.46     0.208 A 
HETATM   15  S3    D T 401      11.054  11.300 -15.846  1.00 90.97    -0.100 SA
ENDBRANCH  10  11
ENDBRANCH   9  10
ENDBRANCH   6   9
ENDBRANCH   4   5
BRANCH   4  16
HETATM   16  C26   D T 401      13.270  14.567 -11.080  1.00 53.54     0.066 C 
BRANCH  16  17
HETATM   17  C28   D T 401      12.450  13.721 -10.153  1.00 51.74    -0.056 A 
HETATM   18  C31   D T 401      12.964  12.517  -9.718  1.00 56.62     0.007 A 
HETATM   19  C32   D T 401      12.231  11.725  -8.852  1.00 61.24     0.001 A 
HETATM   20  C33   D T 401      10.991  12.153  -8.405  1.00 57.56     0.000 A 
HETATM   21  C34   D T 401      10.489  13.375  -8.839  1.00 57.29     0.001 A 
HETATM   22  C35   D T 401      11.225  14.167  -9.714  1.00 54.64     0.007 A 
ENDBRANCH  16  17
ENDBRANCH   4  16
ENDBRANCH   3   4
BRANCH   3  23
HETATM   23  O41   D T 401      12.666  17.935 -12.441  1.00 46.89    -0.393 OA
HETATM   24  HO4   D T 401      12.640  18.843 -12.110  1.00 56.30     0.210 HD
ENDBRANCH   3  23
ENDBRANCH   2   3
ENDBRANCH   1   2
BRANCH   1  25
HETATM   25  C44   D T 401      12.831  17.798  -7.678  1.00 57.31     0.063 C 
BRANCH  25  26
HETATM   26  C45   D T 401      12.740  16.450  -7.038  1.00 62.23    -0.056 A 
HETATM   27  C48   D T 401      13.790  15.560  -7.169  1.00 68.40     0.007 A 
HETATM   28  C49   D T 401      13.705  14.311  -6.566  1.00 68.89     0.001 A 
HETATM   29  C50   D T 401      12.575  13.961  -5.835  1.00 70.95     0.000 A 
HETATM   30  C51   D T 401      11.526  14.864  -5.707  1.00 69.71     0.001 A 
HETATM   31  C52   D T 401      11.611  16.115  -6.309  1.00 63.86     0.007 A 
ENDBRANCH  25  26
ENDBRANCH   1  25
BRANCH   1  32
HETATM   32  N58   D T 401      14.585  18.765  -9.074  1.00 57.14    -0.354 N 
HETATM   33  C18   D T 401      15.856  18.497  -8.788  1.00 63.33     0.241 C 
HETATM   34  O61   D T 401      16.198  17.361  -8.514  1.00 56.06    -0.271 OA
HETATM   35  H58   D T 401      14.287  19.688  -9.356  1.00 68.60     0.162 HD
BRANCH  33  36
HETATM   36  C19   D T 401      16.858  19.600  -8.791  1.00 62.97     0.181 C 
BRANCH  36  37
HETATM   37  N20   D T 401      17.266  20.125 -10.098  1.00 62.86    -0.329 N 
HETATM   38  C21   D T 401      18.299  19.648 -10.754  1.00 67.85     0.319 C 
HETATM   39  N74   D T 401      18.364  19.814 -12.060  1.00 70.47    -0.333 N 
HETATM   40  O76   D T 401      19.165  19.025 -10.182  1.00 58.01    -0.247 OA
HETATM   41  C95   D T 401      17.612  20.789 -12.817  1.00 68.34     0.154 C 
HETATM   42  H20   D T 401      16.725  20.878 -10.498  1.00 75.47     0.165 HD
BRANCH  39  43
HETATM   43  C75   D T 401      19.236  18.966 -12.869  1.00 68.98     0.183 C 
BRANCH  43  44
HETATM   44  C77   D T 401      18.410  17.747 -13.146  1.00 78.58     0.047 A 
HETATM   45  C80   D T 401      18.941  16.473 -13.059  1.00 85.18     0.122 A 
HETATM   46  S81   D T 401      17.773  15.260 -13.449  1.00 94.63    -0.102 SA
HETATM   47  C82   D T 401      16.650  16.538 -13.723  1.00 83.84     0.075 A 
HETATM   48  N83   D T 401      17.132  17.773 -13.536  1.00 84.20    -0.252 NA
BRANCH  47  49
HETATM   49  C85   D T 401      15.318  16.092 -14.121  1.00 85.08     0.036 C 
HETATM   50  C86   D T 401      14.847  17.029 -15.164  1.00 89.40     0.016 C 
HETATM   51  C90   D T 401      15.371  14.626 -14.472  1.00 90.17     0.016 C 
ENDBRANCH  47  49
ENDBRANCH  43  44
ENDBRANCH  39  43
ENDBRANCH  36  37
BRANCH  36  52
HETATM   52  C62   D T 401      16.197  20.824  -8.148  1.00 69.84     0.009 C 
HETATM   53  C64   D T 401      16.674  21.076  -6.730  1.00 64.64     0.012 C 
HETATM   54  C68   D T 401      16.430  22.069  -8.999  1.00 69.88     0.012 C 
ENDBRANCH  36  52
ENDBRANCH  33  36
ENDBRANCH   1  32
TORSDOF 19
ENDMDL
MODEL 8
REMARK VINA RESULT:    -7.376      2.769      8.499
REMARK INTER + INTRA:         -20.683
REMARK INTER:                 -15.557
REMARK INTRA:                  -5.127
REMARK UNBOUND:                -5.331
REMARK  19 active torsions:
REMARK  status: ('A' for Active; 'I' for Inactive)
REMARK    1  A    between atoms: C2_2  and  C6_6 
REMARK    2  A    between atoms: C6_6  and  O7_7 
REMARK    3  A    between atoms: O7_7  and  C10_8 
REMARK       I    between atoms: C10_8  and  N11_10 
REMARK    4  A    between atoms: N11_10  and  C12_11 
REMARK    5  A    between atoms: C12_11  and  C13_12 
REMARK    6  A    between atoms: C12_11  and  C26_15 
REMARK    7  A    between atoms: C13_12  and  C14_13 
REMARK    8  A    between atoms: C13_12  and  O41_22 
REMARK    9  A    between atoms: C14_13  and  C15_14 
REMARK   10  A    between atoms: C15_14  and  C44_23 
REMARK   11  A    between atoms: C15_14  and  N58_30 
REMARK   12  A    between atoms: C26_15  and  C28_16 
REMARK   13  A    between atoms: C44_23  and  C45_24 
REMARK       I    between atoms: N58_30  and  C18_33 
REMARK   14  A    between atoms: N20_31  and  C19_32 
REMARK       I    between atoms: N20_31  and  C21_38 
REMARK   15  A    between atoms: C19_32  and  C18_33 
REMARK   16  A    between atoms: C19_32  and  C62_35 
REMARK       I    between atoms: C21_38  and  N74_39 
REMARK   17  A    between atoms: N74_39  and  C75_40 
REMARK   18  A    between atoms: C75_40  and  C77_42 
REMARK   19  A    between atoms: C82_45  and  C85_47 
ROOT
HETATM    1  C15   D T 401      14.076  17.221 -10.402  1.00 55.13     0.091 C 
ENDROOT
BRANCH   1   2
HETATM    2  C14   D T 401      12.698  16.853  -9.862  1.00 56.49     0.059 C 
BRANCH   2   3
HETATM    3  C13   D T 401      11.634  16.710 -10.939  1.00 52.85     0.143 C 
BRANCH   3   4
HETATM    4  C12   D T 401      11.298  15.267 -11.249  1.00 51.97     0.119 C 
BRANCH   4   5
HETATM    5  N11   D T 401      11.107  14.505 -10.034  1.00 54.53    -0.329 N 
HETATM    6  C10   D T 401      11.830  13.435  -9.743  1.00 57.55     0.361 C 
HETATM    7  O24   D T 401      12.701  12.983 -10.468  1.00 50.79    -0.238 OA
HETATM    8  H11   D T 401      10.391  14.810  -9.391  1.00 65.46     0.165 HD
BRANCH   6   9
HETATM    9  O7    D T 401      11.541  12.781  -8.491  1.00 56.36    -0.299 OA
BRANCH   9  10
HETATM   10  C6    D T 401      11.835  13.481  -7.340  1.00 61.93     0.228 C 
BRANCH  10  11
HETATM   11  C2    D T 401      10.975  12.992  -6.223  1.00 76.84     0.022 A 
HETATM   12  C1    D T 401      10.770  13.377  -4.909  1.00 77.89     0.128 A 
HETATM   13  N5    D T 401       9.851  12.579  -4.308  1.00 89.70    -0.282 NA
HETATM   14  C4    D T 401       9.341  11.604  -5.103  1.00 85.46     0.208 A 
HETATM   15  S3    D T 401      10.028  11.643  -6.703  1.00 90.97    -0.100 SA
ENDBRANCH  10  11
ENDBRANCH   9  10
ENDBRANCH   6   9
ENDBRANCH   4   5
BRANCH   4  16
HETATM   16  C26   D T 401      10.011  15.181 -12.071  1.00 53.54     0.066 C 
BRANCH  16  17
HETATM   17  C28   D T 401      10.380  14.572 -13.389  1.00 51.74    -0.056 A 
HETATM   18  C31   D T 401      10.248  15.331 -14.534  1.00 56.62     0.007 A 
HETATM   19  C32   D T 401      10.595  14.795 -15.763  1.00 61.24     0.001 A 
HETATM   20  C33   D T 401      11.096  13.504 -15.837  1.00 57.56     0.000 A 
HETATM   21  C34   D T 401      11.238  12.754 -14.675  1.00 57.29     0.001 A 
HETATM   22  C35   D T 401      10.884  13.294 -13.443  1.00 54.64     0.007 A 
ENDBRANCH  16  17
ENDBRANCH   4  16
ENDBRANCH   3   4
BRANCH   3  23
HETATM   23  O41   D T 401      10.464  17.394 -10.439  1.00 46.89    -0.393 OA
HETATM   24  HO4   D T 401       9.786  17.420 -11.128  1.00 56.30     0.210 HD
ENDBRANCH   3  23
ENDBRANCH   2   3
ENDBRANCH   1   2
BRANCH   1  25
HETATM   25  C44   D T 401      14.589  15.950 -11.067  1.00 57.31     0.063 C 
BRANCH  25  26
HETATM   26  C45   D T 401      14.503  16.102 -12.552  1.00 62.23    -0.056 A 
HETATM   27  C48   D T 401      14.321  14.982 -13.342  1.00 68.40     0.007 A 
HETATM   28  C49   D T 401      14.232  15.128 -14.721  1.00 68.89     0.001 A 
HETATM   29  C50   D T 401      14.326  16.388 -15.300  1.00 70.95     0.000 A 
HETATM   30  C51   D T 401      14.507  17.507 -14.497  1.00 69.71     0.001 A 
HETATM   31  C52   D T 401      14.593  17.363 -13.116  1.00 63.86     0.007 A 
ENDBRANCH  25  26
ENDBRANCH   1  25
BRANCH   1  32
HETATM   32  N58   D T 401      14.982  17.651  -9.360  1.00 57.14    -0.354 N 
HETATM   33  C18   D T 401      15.661  18.779  -9.554  1.00 63.33     0.241 C 
HETATM   34  O61   D T 401      15.467  19.450 -10.551  1.00 56.06    -0.271 OA
HETATM   35  H58   D T 401      15.087  17.106  -8.517  1.00 68.60     0.162 HD
BRANCH  33  36
HETATM   36  C19   D T 401      16.673  19.209  -8.548  1.00 62.97     0.181 C 
BRANCH  36  37
HETATM   37  N20   D T 401      17.961  19.684  -9.063  1.00 62.86    -0.329 N 
HETATM   38  C21   D T 401      19.030  18.921  -9.093  1.00 67.85     0.319 C 
HETATM   39  N74   D T 401      20.001  19.206  -9.938  1.00 70.47    -0.333 N 
HETATM   40  O76   D T 401      19.113  17.941  -8.388  1.00 58.01    -0.247 OA
HETATM   41  C95   D T 401      20.198  20.484 -10.584  1.00 68.34     0.154 C 
HETATM   42  H20   D T 401      18.015  20.633  -9.404  1.00 75.47     0.165 HD
BRANCH  39  43
HETATM   43  C75   D T 401      20.981  18.188 -10.306  1.00 68.98     0.183 C 
BRANCH  43  44
HETATM   44  C77   D T 401      20.508  17.686 -11.636  1.00 78.58     0.047 A 
HETATM   45  C80   D T 401      21.282  17.808 -12.776  1.00 85.18     0.122 A 
HETATM   46  S81   D T 401      20.483  17.163 -14.168  1.00 94.63    -0.102 SA
HETATM   47  C82   D T 401      19.155  16.787 -13.137  1.00 83.84     0.075 A 
HETATM   48  N83   D T 401      19.313  17.129 -11.853  1.00 84.20    -0.252 NA
BRANCH  47  49
HETATM   49  C85   D T 401      18.035  16.139 -13.813  1.00 85.08     0.036 C 
HETATM   50  C86   D T 401      18.208  16.390 -15.261  1.00 89.40     0.016 C 
HETATM   51  C90   D T 401      17.944  14.705 -13.358  1.00 90.17     0.016 C 
ENDBRANCH  47  49
ENDBRANCH  43  44
ENDBRANCH  39  43
ENDBRANCH  36  37
BRANCH  36  52
HETATM   52  C62   D T 401      16.127  20.459  -7.850  1.00 69.84     0.009 C 
HETATM   53  C64   D T 401      14.851  20.192  -7.075  1.00 64.64     0.012 C 
HETATM   54  C68   D T 401      17.179  21.057  -6.921  1.00 69.88     0.012 C 
ENDBRANCH  36  52
ENDBRANCH  33  36
ENDBRANCH   1  32
TORSDOF 19
ENDMDL
MODEL 9
REMARK VINA RESULT:    -7.355      2.265      5.751
REMARK INTER + INTRA:         -20.641
REMARK INTER:                 -16.024
REMARK INTRA:                  -4.617
REMARK UNBOUND:                -5.331
REMARK  19 active torsions:
REMARK  status: ('A' for Active; 'I' for Inactive)
REMARK    1  A    between atoms: C2_2  and  C6_6 
REMARK    2  A    between atoms: C6_6  and  O7_7 
REMARK    3  A    between atoms: O7_7  and  C10_8 
REMARK       I    between atoms: C10_8  and  N11_10 
REMARK    4  A    between atoms: N11_10  and  C12_11 
REMARK    5  A    between atoms: C12_11  and  C13_12 
REMARK    6  A    between atoms: C12_11  and  C26_15 
REMARK    7  A    between atoms: C13_12  and  C14_13 
REMARK    8  A    between atoms: C13_12  and  O41_22 
REMARK    9  A    between atoms: C14_13  and  C15_14 
REMARK   10  A    between atoms: C15_14  and  C44_23 
REMARK   11  A    between atoms: C15_14  and  N58_30 
REMARK   12  A    between atoms: C26_15  and  C28_16 
REMARK   13  A    between atoms: C44_23  and  C45_24 
REMARK       I    between atoms: N58_30  and  C18_33 
REMARK   14  A    between atoms: N20_31  and  C19_32 
REMARK       I    between atoms: N20_31  and  C21_38 
REMARK   15  A    between atoms: C19_32  and  C18_33 
REMARK   16  A    between atoms: C19_32  and  C62_35 
REMARK       I    between atoms: C21_38  and  N74_39 
REMARK   17  A    between atoms: N74_39  and  C75_40 
REMARK   18  A    between atoms: C75_40  and  C77_42 
REMARK   19  A    between atoms: C82_45  and  C85_47 
ROOT
HETATM    1  C15   D T 401      13.490  15.440  -9.160  1.00 55.13     0.091 C 
ENDROOT
BRANCH   1   2
HETATM    2  C14   D T 401      13.172  16.544 -10.164  1.00 56.49     0.059 C 
BRANCH   2   3
HETATM    3  C13   D T 401      11.768  16.462 -10.743  1.00 52.85     0.143 C 
BRANCH   3   4
HETATM    4  C12   D T 401      11.743  15.916 -12.154  1.00 51.97     0.119 C 
BRANCH   4   5
HETATM    5  N11   D T 401      13.084  15.680 -12.645  1.00 54.53    -0.329 N 
HETATM    6  C10   D T 401      13.615  16.382 -13.634  1.00 57.55     0.361 C 
HETATM    7  O24   D T 401      13.028  17.270 -14.231  1.00 50.79    -0.238 OA
HETATM    8  H11   D T 401      13.626  14.948 -12.210  1.00 65.46     0.165 HD
BRANCH   6   9
HETATM    9  O7    D T 401      14.966  16.049 -14.010  1.00 56.36    -0.299 OA
BRANCH   9  10
HETATM   10  C6    D T 401      15.881  17.081 -14.026  1.00 61.93     0.228 C 
BRANCH  10  11
HETATM   11  C2    D T 401      16.135  17.547 -12.631  1.00 76.84     0.022 A 
HETATM   12  C1    D T 401      16.606  16.952 -11.473  1.00 77.89     0.128 A 
HETATM   13  N5    D T 401      16.650  17.845 -10.452  1.00 89.70    -0.282 NA
HETATM   14  C4    D T 401      16.239  19.097 -10.777  1.00 85.46     0.208 A 
HETATM   15  S3    D T 401      15.749  19.209 -12.445  1.00 90.97    -0.100 SA
ENDBRANCH  10  11
ENDBRANCH   9  10
ENDBRANCH   6   9
ENDBRANCH   4   5
BRANCH   4  16
HETATM   16  C26   D T 401      10.981  14.590 -12.204  1.00 53.54     0.066 C 
BRANCH  16  17
HETATM   17  C28   D T 401      10.272  14.549 -13.523  1.00 51.74    -0.056 A 
HETATM   18  C31   D T 401       9.278  15.473 -13.775  1.00 56.62     0.007 A 
HETATM   19  C32   D T 401       8.617  15.463 -14.992  1.00 61.24     0.001 A 
HETATM   20  C33   D T 401       8.972  14.540 -15.963  1.00 57.56     0.000 A 
HETATM   21  C34   D T 401       9.984  13.624 -15.703  1.00 57.29     0.001 A 
HETATM   22  C35   D T 401      10.643  13.632 -14.478  1.00 54.64     0.007 A 
ENDBRANCH  16  17
ENDBRANCH   4  16
ENDBRANCH   3   4
BRANCH   3  23
HETATM   23  O41   D T 401      11.023  15.591  -9.863  1.00 46.89    -0.393 OA
HETATM   24  HO4   D T 401      10.143  15.436 -10.232  1.00 56.30     0.210 HD
ENDBRANCH   3  23
ENDBRANCH   2   3
ENDBRANCH   1   2
BRANCH   1  25
HETATM   25  C44   D T 401      14.495  16.061  -8.199  1.00 57.31     0.063 C 
BRANCH  25  26
HETATM   26  C45   D T 401      13.838  17.176  -7.450  1.00 62.23    -0.056 A 
HETATM   27  C48   D T 401      12.707  16.918  -6.696  1.00 68.40     0.007 A 
HETATM   28  C49   D T 401      12.104  17.954  -5.995  1.00 68.89     0.001 A 
HETATM   29  C50   D T 401      12.634  19.239  -6.050  1.00 70.95     0.000 A 
HETATM   30  C51   D T 401      13.771  19.487  -6.807  1.00 69.71     0.001 A 
HETATM   31  C52   D T 401      14.378  18.450  -7.509  1.00 63.86     0.007 A 
ENDBRANCH  25  26
ENDBRANCH   1  25
BRANCH   1  32
HETATM   32  N58   D T 401      14.047  14.264  -9.790  1.00 57.14    -0.354 N 
HETATM   33  C18   D T 401      13.374  13.122  -9.680  1.00 63.33     0.241 C 
HETATM   34  O61   D T 401      12.293  13.098  -9.120  1.00 56.06    -0.271 OA
HETATM   35  H58   D T 401      14.920  14.320 -10.295  1.00 68.60     0.162 HD
BRANCH  33  36
HETATM   36  C19   D T 401      13.959  11.868 -10.233  1.00 62.97     0.181 C 
BRANCH  36  37
HETATM   37  N20   D T 401      13.021  10.799 -10.591  1.00 62.86    -0.329 N 
HETATM   38  C21   D T 401      12.986   9.653  -9.951  1.00 67.85     0.319 C 
HETATM   39  N74   D T 401      11.886   8.928  -9.990  1.00 70.47    -0.333 N 
HETATM   40  O76   D T 401      13.931   9.279  -9.294  1.00 58.01    -0.247 OA
HETATM   41  C95   D T 401      10.829   9.065 -10.967  1.00 68.34     0.154 C 
HETATM   42  H20   D T 401      12.385  10.963 -11.359  1.00 75.47     0.165 HD
BRANCH  39  43
HETATM   43  C75   D T 401      11.647   7.895  -8.985  1.00 68.98     0.183 C 
BRANCH  43  44
HETATM   44  C77   D T 401      10.545   8.454  -8.138  1.00 78.58     0.047 A 
HETATM   45  C80   D T 401       9.523   7.657  -7.656  1.00 85.18     0.122 A 
HETATM   46  S81   D T 401       8.382   8.566  -6.727  1.00 94.63    -0.102 SA
HETATM   47  C82   D T 401       9.338   9.960  -7.059  1.00 83.84     0.075 A 
HETATM   48  N83   D T 401      10.422   9.745  -7.813  1.00 84.20    -0.252 NA
BRANCH  47  49
HETATM   49  C85   D T 401       8.828  11.192  -6.464  1.00 85.08     0.036 C 
HETATM   50  C86   D T 401       7.364  11.031  -6.336  1.00 89.40     0.016 C 
HETATM   51  C90   D T 401       9.610  11.497  -5.211  1.00 90.17     0.016 C 
ENDBRANCH  47  49
ENDBRANCH  43  44
ENDBRANCH  39  43
ENDBRANCH  36  37
BRANCH  36  52
HETATM   52  C62   D T 401      14.585  12.211 -11.589  1.00 69.84     0.009 C 
HETATM   53  C64   D T 401      15.831  11.399 -11.886  1.00 64.64     0.012 C 
HETATM   54  C68   D T 401      13.569  12.026 -12.712  1.00 69.88     0.012 C 
ENDBRANCH  36  52
ENDBRANCH  33  36
ENDBRANCH   1  32
TORSDOF 19
ENDMDL
