MODEL 1
REMARK VINA RESULT:    -7.949      0.000      0.000
REMARK INTER + INTRA:          -9.203
REMARK INTER:                  -8.879
REMARK INTRA:                  -0.325
REMARK UNBOUND:                -0.325
REMARK  2 active torsions:
REMARK  status: ('A' for Active; 'I' for Inactive)
REMARK    1  A    between atoms: C5_4  and  O7_13 
REMARK    2  A    between atoms: C8_10  and  O7_13 
ROOT
HETATM    1  O7    D T 302      11.253  21.464  22.696  1.00 32.50    -0.304 OA
ENDROOT
BRANCH   1   2
HETATM    2  C5    D T 302      10.299  21.518  21.691  1.00 32.49     0.125 A 
HETATM    3  C6    D T 302       9.172  20.687  21.845  1.00 34.76     0.154 A 
HETATM    4  C1    D T 302       8.185  20.675  20.872  1.00 31.51     0.041 A 
HETATM    5  O17   D T 302       9.099  19.912  22.968  1.00 36.08    -0.188 OA
HETATM    6  C2    D T 302       8.344  21.456  19.739  1.00 34.46     0.060 A 
HETATM    7  C3    D T 302       9.450  22.276  19.585  1.00 34.68     0.014 A 
HETATM    8 CL14   D T 302       7.136  21.391  18.483  1.00 37.27    -0.082 Cl
HETATM    9  C4    D T 302      10.428  22.305  20.569  1.00 32.81     0.028 A 
ENDBRANCH   1   2
BRANCH   1  10
HETATM   10  C8    D T 302      11.548  22.649  23.376  1.00 37.25     0.111 A 
HETATM   11  C9    D T 302      12.850  22.833  23.817  1.00 38.38     0.081 A 
HETATM   12  C10   D T 302      13.235  23.959  24.520  1.00 40.82     0.025 A 
HETATM   13 CL16   D T 302      14.015  21.599  23.502  1.00 44.81    -0.080 Cl
HETATM   14  C11   D T 302      12.278  24.923  24.800  1.00 44.65     0.059 A 
HETATM   15  C12   D T 302      10.976  24.779  24.360  1.00 39.54     0.013 A 
HETATM   16 CL15   D T 302      12.747  26.335  25.716  1.00 46.21    -0.082 Cl
HETATM   17  C13   D T 302      10.610  23.642  23.646  1.00 39.31     0.026 A 
ENDBRANCH   1  10
TORSDOF 2
ENDMDL
MODEL 2
REMARK VINA RESULT:    -7.926      9.597     12.455
REMARK INTER + INTRA:          -9.178
REMARK INTER:                  -8.928
REMARK INTRA:                  -0.250
REMARK UNBOUND:                -0.325
REMARK  2 active torsions:
REMARK  status: ('A' for Active; 'I' for Inactive)
REMARK    1  A    between atoms: C5_4  and  O7_13 
REMARK    2  A    between atoms: C8_10  and  O7_13 
ROOT
HETATM    1  O7    D T 302       8.694  28.305  12.919  1.00 32.50    -0.304 OA
ENDROOT
BRANCH   1   2
HETATM    2  C5    D T 302       8.843  26.999  13.358  1.00 32.49     0.125 A 
HETATM    3  C6    D T 302      10.107  26.407  13.162  1.00 34.76     0.154 A 
HETATM    4  C1    D T 302      10.324  25.097  13.559  1.00 31.51     0.041 A 
HETATM    5  O17   D T 302      11.082  27.164  12.575  1.00 36.08    -0.188 OA
HETATM    6  C2    D T 302       9.279  24.376  14.110  1.00 34.46     0.060 A 
HETATM    7  C3    D T 302       8.036  24.954  14.306  1.00 34.68     0.014 A 
HETATM    8 CL14   D T 302       9.533  22.707  14.549  1.00 37.27    -0.082 Cl
HETATM    9  C4    D T 302       7.822  26.272  13.928  1.00 32.81     0.028 A 
ENDBRANCH   1   2
BRANCH   1  10
HETATM   10  C8    D T 302       7.462  28.668  12.365  1.00 37.25     0.111 A 
HETATM   11  C9    D T 302       7.202  28.278  11.060  1.00 38.38     0.081 A 
HETATM   12  C10   D T 302       6.025  28.609  10.415  1.00 40.82     0.025 A 
HETATM   13 CL16   D T 302       8.403  27.379  10.207  1.00 44.81    -0.080 Cl
HETATM   14  C11   D T 302       5.086  29.366  11.101  1.00 44.65     0.059 A 
HETATM   15  C12   D T 302       5.306  29.756  12.408  1.00 39.54     0.013 A 
HETATM   16 CL15   D T 302       3.609  29.817  10.284  1.00 46.21    -0.082 Cl
HETATM   17  C13   D T 302       6.494  29.405  13.042  1.00 39.31     0.026 A 
ENDBRANCH   1  10
TORSDOF 2
ENDMDL
MODEL 3
REMARK VINA RESULT:    -7.851      1.442      6.024
REMARK INTER + INTRA:          -9.094
REMARK INTER:                  -8.737
REMARK INTRA:                  -0.357
REMARK UNBOUND:                -0.325
REMARK  2 active torsions:
REMARK  status: ('A' for Active; 'I' for Inactive)
REMARK    1  A    between atoms: C5_4  and  O7_13 
REMARK    2  A    between atoms: C8_10  and  O7_13 
ROOT
HETATM    1  O7    D T 302      11.285  21.517  22.670  1.00 32.50    -0.304 OA
ENDROOT
BRANCH   1   2
HETATM    2  C5    D T 302      11.544  22.692  23.357  1.00 32.49     0.125 A 
HETATM    3  C6    D T 302      12.872  22.897  23.780  1.00 34.76     0.154 A 
HETATM    4  C1    D T 302      13.202  24.041  24.489  1.00 31.51     0.041 A 
HETATM    5  O17   D T 302      13.795  21.938  23.472  1.00 36.08    -0.188 OA
HETATM    6  C2    D T 302      12.208  24.952  24.802  1.00 34.46     0.060 A 
HETATM    7  C3    D T 302      10.901  24.757  24.386  1.00 34.68     0.014 A 
HETATM    8 CL14   D T 302      12.609  26.360  25.751  1.00 37.27    -0.082 Cl
HETATM    9  C4    D T 302      10.574  23.621  23.659  1.00 32.81     0.028 A 
ENDBRANCH   1   2
BRANCH   1  10
HETATM   10  C8    D T 302      10.296  21.546  21.682  1.00 37.25     0.111 A 
HETATM   11  C9    D T 302       9.174  20.753  21.869  1.00 38.38     0.081 A 
HETATM   12  C10   D T 302       8.153  20.694  20.939  1.00 40.82     0.025 A 
HETATM   13 CL16   D T 302       9.068  19.787  23.295  1.00 44.81    -0.080 Cl
HETATM   14  C11   D T 302       8.271  21.445  19.779  1.00 44.65     0.059 A 
HETATM   15  C12   D T 302       9.367  22.260  19.570  1.00 39.54     0.013 A 
HETATM   16 CL15   D T 302       7.002  21.353  18.582  1.00 46.21    -0.082 Cl
HETATM   17  C13   D T 302      10.380  22.312  20.522  1.00 39.31     0.026 A 
ENDBRANCH   1  10
TORSDOF 2
ENDMDL
MODEL 4
REMARK VINA RESULT:    -7.677      9.722     12.045
REMARK INTER + INTRA:          -8.899
REMARK INTER:                  -8.690
REMARK INTRA:                  -0.209
REMARK UNBOUND:                -0.325
REMARK  2 active torsions:
REMARK  status: ('A' for Active; 'I' for Inactive)
REMARK    1  A    between atoms: C5_4  and  O7_13 
REMARK    2  A    between atoms: C8_10  and  O7_13 
ROOT
HETATM    1  O7    D T 302       8.589  28.181  12.866  1.00 32.50    -0.304 OA
ENDROOT
BRANCH   1   2
HETATM    2  C5    D T 302       7.406  28.607  12.283  1.00 32.49     0.125 A 
HETATM    3  C6    D T 302       7.156  28.170  10.967  1.00 34.76     0.154 A 
HETATM    4  C1    D T 302       6.002  28.572  10.313  1.00 31.51     0.041 A 
HETATM    5  O17   D T 302       8.083  27.356  10.379  1.00 36.08    -0.188 OA
HETATM    6  C2    D T 302       5.126  29.430  10.955  1.00 34.46     0.060 A 
HETATM    7  C3    D T 302       5.366  29.861  12.250  1.00 34.68     0.014 A 
HETATM    8 CL14   D T 302       3.706  29.989  10.110  1.00 37.27    -0.082 Cl
HETATM    9  C4    D T 302       6.511  29.443  12.913  1.00 32.81     0.028 A 
ENDBRANCH   1   2
BRANCH   1  10
HETATM   10  C8    D T 302       8.629  26.881  13.381  1.00 37.25     0.111 A 
HETATM   11  C9    D T 302       9.771  26.131  13.152  1.00 38.38     0.081 A 
HETATM   12  C10   D T 302       9.898  24.829  13.599  1.00 40.82     0.025 A 
HETATM   13 CL16   D T 302      11.063  26.839  12.252  1.00 44.81    -0.080 Cl
HETATM   14  C11   D T 302       8.835  24.260  14.286  1.00 44.65     0.059 A 
HETATM   15  C12   D T 302       7.689  24.986  14.547  1.00 39.54     0.013 A 
HETATM   16 CL15   D T 302       8.971  22.604  14.826  1.00 46.21    -0.082 Cl
HETATM   17  C13   D T 302       7.585  26.298  14.096  1.00 39.31     0.026 A 
ENDBRANCH   1  10
TORSDOF 2
ENDMDL
MODEL 5
REMARK VINA RESULT:    -7.603      9.290     11.589
REMARK INTER + INTRA:          -8.817
REMARK INTER:                  -8.274
REMARK INTRA:                  -0.543
REMARK UNBOUND:                -0.325
REMARK  2 active torsions:
REMARK  status: ('A' for Active; 'I' for Inactive)
REMARK    1  A    between atoms: C5_4  and  O7_13 
REMARK    2  A    between atoms: C8_10  and  O7_13 
ROOT
HETATM    1  O7    D T 302       8.615  28.213  13.643  1.00 32.50    -0.304 OA
ENDROOT
BRANCH   1   2
HETATM    2  C5    D T 302       7.575  28.592  12.808  1.00 32.49     0.125 A 
HETATM    3  C6    D T 302       6.491  29.259  13.412  1.00 34.76     0.154 A 
HETATM    4  C1    D T 302       5.407  29.651  12.643  1.00 31.51     0.041 A 
HETATM    5  O17   D T 302       6.554  29.492  14.757  1.00 36.08    -0.188 OA
HETATM    6  C2    D T 302       5.391  29.346  11.293  1.00 34.46     0.060 A 
HETATM    7  C3    D T 302       6.455  28.693  10.694  1.00 34.68     0.014 A 
HETATM    8 CL14   D T 302       3.998  29.780  10.337  1.00 37.27    -0.082 Cl
HETATM    9  C4    D T 302       7.551  28.318  11.459  1.00 32.81     0.028 A 
ENDBRANCH   1   2
BRANCH   1  10
HETATM   10  C8    D T 302       8.756  26.852  13.930  1.00 37.25     0.111 A 
HETATM   11  C9    D T 302       9.884  26.205  13.451  1.00 38.38     0.081 A 
HETATM   12  C10   D T 302      10.103  24.857  13.660  1.00 40.82     0.025 A 
HETATM   13 CL16   D T 302      11.036  27.111  12.538  1.00 44.81    -0.080 Cl
HETATM   14  C11   D T 302       9.148  24.134  14.362  1.00 44.65     0.059 A 
HETATM   15  C12   D T 302       8.021  24.751  14.868  1.00 39.54     0.013 A 
HETATM   16 CL15   D T 302       9.398  22.422  14.604  1.00 46.21    -0.082 Cl
HETATM   17  C13   D T 302       7.824  26.112  14.653  1.00 39.31     0.026 A 
ENDBRANCH   1  10
TORSDOF 2
ENDMDL
MODEL 6
REMARK VINA RESULT:    -7.484      9.306     10.614
REMARK INTER + INTRA:          -8.684
REMARK INTER:                  -8.400
REMARK INTRA:                  -0.285
REMARK UNBOUND:                -0.325
REMARK  2 active torsions:
REMARK  status: ('A' for Active; 'I' for Inactive)
REMARK    1  A    between atoms: C5_4  and  O7_13 
REMARK    2  A    between atoms: C8_10  and  O7_13 
ROOT
HETATM    1  O7    D T 302       8.007  28.185  15.186  1.00 32.50    -0.304 OA
ENDROOT
BRANCH   1   2
HETATM    2  C5    D T 302       7.147  28.516  14.150  1.00 32.49     0.125 A 
HETATM    3  C6    D T 302       7.738  29.016  12.973  1.00 34.76     0.154 A 
HETATM    4  C1    D T 302       6.939  29.385  11.902  1.00 31.51     0.041 A 
HETATM    5  O17   D T 302       9.100  29.121  12.938  1.00 36.08    -0.188 OA
HETATM    6  C2    D T 302       5.563  29.291  12.022  1.00 34.46     0.060 A 
HETATM    7  C3    D T 302       4.978  28.798  13.176  1.00 34.68     0.014 A 
HETATM    8 CL14   D T 302       4.554  29.817  10.700  1.00 37.27    -0.082 Cl
HETATM    9  C4    D T 302       5.777  28.408  14.241  1.00 32.81     0.028 A 
ENDBRANCH   1   2
BRANCH   1  10
HETATM   10  C8    D T 302       7.893  28.903  16.380  1.00 37.25     0.111 A 
HETATM   11  C9    D T 302       8.240  28.257  17.556  1.00 38.38     0.081 A 
HETATM   12  C10   D T 302       8.139  28.873  18.790  1.00 40.82     0.025 A 
HETATM   13 CL16   D T 302       8.786  26.622  17.476  1.00 44.81    -0.080 Cl
HETATM   14  C11   D T 302       7.661  30.175  18.841  1.00 44.65     0.059 A 
HETATM   15  C12   D T 302       7.323  30.853  17.686  1.00 39.54     0.013 A 
HETATM   16 CL15   D T 302       7.498  30.951  20.398  1.00 46.21    -0.082 Cl
HETATM   17  C13   D T 302       7.440  30.217  16.454  1.00 39.31     0.026 A 
ENDBRANCH   1  10
TORSDOF 2
ENDMDL
MODEL 7
REMARK VINA RESULT:    -7.454      9.042     11.975
REMARK INTER + INTRA:          -8.651
REMARK INTER:                  -8.093
REMARK INTRA:                  -0.557
REMARK UNBOUND:                -0.325
REMARK  2 active torsions:
REMARK  status: ('A' for Active; 'I' for Inactive)
REMARK    1  A    between atoms: C5_4  and  O7_13 
REMARK    2  A    between atoms: C8_10  and  O7_13 
ROOT
HETATM    1  O7    D T 302       7.715  25.737  12.393  1.00 32.50    -0.304 OA
ENDROOT
BRANCH   1   2
HETATM    2  C5    D T 302       8.099  25.832  13.722  1.00 32.49     0.125 A 
HETATM    3  C6    D T 302       7.829  24.716  14.539  1.00 34.76     0.154 A 
HETATM    4  C1    D T 302       8.167  24.747  15.883  1.00 31.51     0.041 A 
HETATM    5  O17   D T 302       7.229  23.633  13.962  1.00 36.08    -0.188 OA
HETATM    6  C2    D T 302       8.736  25.894  16.410  1.00 34.46     0.060 A 
HETATM    7  C3    D T 302       9.005  26.992  15.610  1.00 34.68     0.014 A 
HETATM    8 CL14   D T 302       9.102  25.958  18.114  1.00 37.27    -0.082 Cl
HETATM    9  C4    D T 302       8.685  26.955  14.260  1.00 32.81     0.028 A 
ENDBRANCH   1   2
BRANCH   1  10
HETATM   10  C8    D T 302       6.780  26.662  11.919  1.00 37.25     0.111 A 
HETATM   11  C9    D T 302       7.189  27.544  10.931  1.00 38.38     0.081 A 
HETATM   12  C10   D T 302       6.347  28.511  10.415  1.00 40.82     0.025 A 
HETATM   13 CL16   D T 302       8.812  27.447  10.352  1.00 44.81    -0.080 Cl
HETATM   14  C11   D T 302       5.058  28.602  10.918  1.00 44.65     0.059 A 
HETATM   15  C12   D T 302       4.612  27.727  11.891  1.00 39.54     0.013 A 
HETATM   16 CL15   D T 302       3.996  29.842  10.296  1.00 46.21    -0.082 Cl
HETATM   17  C13   D T 302       5.473  26.755  12.391  1.00 39.31     0.026 A 
ENDBRANCH   1  10
TORSDOF 2
ENDMDL
MODEL 8
REMARK VINA RESULT:    -7.421      1.767      5.991
REMARK INTER + INTRA:          -8.613
REMARK INTER:                  -8.280
REMARK INTRA:                  -0.334
REMARK UNBOUND:                -0.325
REMARK  2 active torsions:
REMARK  status: ('A' for Active; 'I' for Inactive)
REMARK    1  A    between atoms: C5_4  and  O7_13 
REMARK    2  A    between atoms: C8_10  and  O7_13 
ROOT
HETATM    1  O7    D T 302      10.850  21.722  22.205  1.00 32.50    -0.304 OA
ENDROOT
BRANCH   1   2
HETATM    2  C5    D T 302      11.326  22.733  23.026  1.00 32.49     0.125 A 
HETATM    3  C6    D T 302      12.650  22.600  23.489  1.00 34.76     0.154 A 
HETATM    4  C1    D T 302      13.186  23.563  24.330  1.00 31.51     0.041 A 
HETATM    5  O17   D T 302      13.360  21.505  23.086  1.00 36.08    -0.188 OA
HETATM    6  C2    D T 302      12.396  24.626  24.731  1.00 34.46     0.060 A 
HETATM    7  C3    D T 302      11.094  24.762  24.276  1.00 34.68     0.014 A 
HETATM    8 CL14   D T 302      13.049  25.803  25.841  1.00 37.27    -0.082 Cl
HETATM    9  C4    D T 302      10.562  23.810  23.418  1.00 32.81     0.028 A 
ENDBRANCH   1   2
BRANCH   1  10
HETATM   10  C8    D T 302       9.513  21.341  22.352  1.00 37.25     0.111 A 
HETATM   11  C9    D T 302       8.688  21.441  21.242  1.00 38.38     0.081 A 
HETATM   12  C10   D T 302       7.346  21.112  21.292  1.00 40.82     0.025 A 
HETATM   13 CL16   D T 302       9.355  22.027  19.762  1.00 44.81    -0.080 Cl
HETATM   14  C11   D T 302       6.816  20.681  22.499  1.00 44.65     0.059 A 
HETATM   15  C12   D T 302       7.614  20.552  23.620  1.00 39.54     0.013 A 
HETATM   16 CL15   D T 302       5.114  20.294  22.582  1.00 46.21    -0.082 Cl
HETATM   17  C13   D T 302       8.964  20.881  23.546  1.00 39.31     0.026 A 
ENDBRANCH   1  10
TORSDOF 2
ENDMDL
MODEL 9
REMARK VINA RESULT:    -7.349      1.796      2.696
REMARK INTER + INTRA:          -8.533
REMARK INTER:                  -7.976
REMARK INTRA:                  -0.557
REMARK UNBOUND:                -0.325
REMARK  2 active torsions:
REMARK  status: ('A' for Active; 'I' for Inactive)
REMARK    1  A    between atoms: C5_4  and  O7_13 
REMARK    2  A    between atoms: C8_10  and  O7_13 
ROOT
HETATM    1  O7    D T 302       9.340  22.525  22.275  1.00 32.50    -0.304 OA
ENDROOT
BRANCH   1   2
HETATM    2  C5    D T 302       9.202  22.685  20.905  1.00 32.49     0.125 A 
HETATM    3  C6    D T 302       8.713  21.577  20.184  1.00 34.76     0.154 A 
HETATM    4  C1    D T 302       8.566  21.659  18.809  1.00 31.51     0.041 A 
HETATM    5  O17   D T 302       8.402  20.447  20.886  1.00 36.08    -0.188 OA
HETATM    6  C2    D T 302       8.940  22.822  18.157  1.00 34.46     0.060 A 
HETATM    7  C3    D T 302       9.418  23.914  18.861  1.00 34.68     0.014 A 
HETATM    8 CL14   D T 302       8.818  22.902  16.419  1.00 37.27    -0.082 Cl
HETATM    9  C4    D T 302       9.546  23.841  20.241  1.00 32.81     0.028 A 
ENDBRANCH   1   2
BRANCH   1  10
HETATM   10  C8    D T 302      10.635  22.523  22.801  1.00 37.25     0.111 A 
HETATM   11  C9    D T 302      11.017  23.607  23.577  1.00 38.38     0.081 A 
HETATM   12  C10   D T 302      12.283  23.710  24.122  1.00 40.82     0.025 A 
HETATM   13 CL16   D T 302       9.882  24.880  23.842  1.00 44.81    -0.080 Cl
HETATM   14  C11   D T 302      13.197  22.698  23.867  1.00 44.65     0.059 A 
HETATM   15  C12   D T 302      12.843  21.595  23.113  1.00 39.54     0.013 A 
HETATM   16 CL15   D T 302      14.810  22.834  24.524  1.00 46.21    -0.082 Cl
HETATM   17  C13   D T 302      11.561  21.507  22.581  1.00 39.31     0.026 A 
ENDBRANCH   1  10
TORSDOF 2
ENDMDL
