MODEL 1
REMARK VINA RESULT:      -8.1      0.000      0.000
REMARK  2 active torsions:
REMARK  status: ('A' for Active; 'I' for Inactive)
REMARK    1  A    between atoms: C5_4  and  O7_13 
REMARK    2  A    between atoms: C8_10  and  O7_13 
ROOT
HETATM    1  O7    D T 302       8.880  28.301  12.792  1.00 32.50    -0.304 OA
ENDROOT
BRANCH   1   2
HETATM    2  C5    D T 302       8.973  27.005  13.273  1.00 32.49     0.125 A 
HETATM    3  C6    D T 302      10.208  26.351  13.096  1.00 34.76     0.154 A 
HETATM    4  C1    D T 302      10.369  25.047  13.535  1.00 31.51     0.041 A 
HETATM    5  O17   D T 302      11.214  27.044  12.484  1.00 36.08    -0.188 OA
HETATM    6  C2    D T 302       9.294  24.390  14.110  1.00 34.46     0.060 A 
HETATM    7  C3    D T 302       8.078  25.029  14.289  1.00 34.68     0.014 A 
HETATM    8 CL14   D T 302       9.475  22.727  14.603  1.00 37.27    -0.082 Cl
HETATM    9  C4    D T 302       7.922  26.342  13.868  1.00 32.81     0.028 A 
ENDBRANCH   1   2
BRANCH   1  10
HETATM   10  C8    D T 302       7.661  28.704  12.239  1.00 37.25     0.111 A 
HETATM   11  C9    D T 302       7.328  28.213  10.986  1.00 38.38     0.081 A 
HETATM   12  C10   D T 302       6.157  28.570  10.344  1.00 40.82     0.025 A 
HETATM   13 CL16   D T 302       8.429  27.146  10.193  1.00 44.81    -0.080 Cl
HETATM   14  C11   D T 302       5.301  29.460  10.977  1.00 44.65     0.059 A 
HETATM   15  C12   D T 302       5.594  29.954  12.234  1.00 39.54     0.013 A 
HETATM   16 CL15   D T 302       3.835  29.944  10.160  1.00 46.21    -0.082 Cl
HETATM   17  C13   D T 302       6.774  29.575  12.866  1.00 39.31     0.026 A 
ENDBRANCH   1  10
TORSDOF 2
ENDMDL
MODEL 2
REMARK VINA RESULT:      -8.0     10.821     13.047
REMARK  2 active torsions:
REMARK  status: ('A' for Active; 'I' for Inactive)
REMARK    1  A    between atoms: C5_4  and  O7_13 
REMARK    2  A    between atoms: C8_10  and  O7_13 
ROOT
HETATM    1  O7    D T 302      11.568  21.479  22.323  1.00 32.50    -0.304 OA
ENDROOT
BRANCH   1   2
HETATM    2  C5    D T 302      10.184  21.419  22.365  1.00 32.49     0.125 A 
HETATM    3  C6    D T 302       9.498  21.813  21.199  1.00 34.76     0.154 A 
HETATM    4  C1    D T 302       8.112  21.797  21.174  1.00 31.51     0.041 A 
HETATM    5  O17   D T 302      10.242  22.206  20.123  1.00 36.08    -0.188 OA
HETATM    6  C2    D T 302       7.421  21.426  22.315  1.00 34.46     0.060 A 
HETATM    7  C3    D T 302       8.090  21.036  23.463  1.00 34.68     0.014 A 
HETATM    8 CL14   D T 302       5.677  21.468  22.306  1.00 37.27    -0.082 Cl
HETATM    9  C4    D T 302       9.478  21.032  23.482  1.00 32.81     0.028 A 
ENDBRANCH   1   2
BRANCH   1  10
HETATM   10  C8    D T 302      12.201  22.443  23.114  1.00 37.25     0.111 A 
HETATM   11  C9    D T 302      13.384  22.085  23.742  1.00 38.38     0.081 A 
HETATM   12  C10   D T 302      14.072  22.958  24.564  1.00 40.82     0.025 A 
HETATM   13 CL16   D T 302      13.997  20.488  23.512  1.00 44.81    -0.080 Cl
HETATM   14  C11   D T 302      13.546  24.225  24.771  1.00 44.65     0.059 A 
HETATM   15  C12   D T 302      12.378  24.619  24.146  1.00 39.54     0.013 A 
HETATM   16 CL15   D T 302      14.390  25.325  25.834  1.00 46.21    -0.082 Cl
HETATM   17  C13   D T 302      11.705  23.728  23.315  1.00 39.31     0.026 A 
ENDBRANCH   1  10
TORSDOF 2
ENDMDL
MODEL 3
REMARK VINA RESULT:      -7.9      1.173      5.699
REMARK  2 active torsions:
REMARK  status: ('A' for Active; 'I' for Inactive)
REMARK    1  A    between atoms: C5_4  and  O7_13 
REMARK    2  A    between atoms: C8_10  and  O7_13 
ROOT
HETATM    1  O7    D T 302       9.003  28.132  12.269  1.00 32.50    -0.304 OA
ENDROOT
BRANCH   1   2
HETATM    2  C5    D T 302       7.760  28.588  11.859  1.00 32.49     0.125 A 
HETATM    3  C6    D T 302       7.213  27.985  10.709  1.00 34.76     0.154 A 
HETATM    4  C1    D T 302       5.981  28.403  10.230  1.00 31.51     0.041 A 
HETATM    5  O17   D T 302       7.936  26.999  10.101  1.00 36.08    -0.188 OA
HETATM    6  C2    D T 302       5.322  29.437  10.873  1.00 34.46     0.060 A 
HETATM    7  C3    D T 302       5.854  30.030  12.006  1.00 34.68     0.014 A 
HETATM    8 CL14   D T 302       3.803  30.008  10.233  1.00 37.27    -0.082 Cl
HETATM    9  C4    D T 302       7.078  29.599  12.498  1.00 32.81     0.028 A 
ENDBRANCH   1   2
BRANCH   1  10
HETATM   10  C8    D T 302       9.042  27.031  13.129  1.00 37.25     0.111 A 
HETATM   11  C9    D T 302       9.848  25.962  12.773  1.00 38.38     0.081 A 
HETATM   12  C10   D T 302       9.935  24.818  13.545  1.00 40.82     0.025 A 
HETATM   13 CL16   D T 302      10.747  26.053  11.303  1.00 44.81    -0.080 Cl
HETATM   14  C11   D T 302       9.176  24.743  14.704  1.00 44.65     0.059 A 
HETATM   15  C12   D T 302       8.375  25.799  15.097  1.00 39.54     0.013 A 
HETATM   16 CL15   D T 302       9.252  23.289  15.669  1.00 46.21    -0.082 Cl
HETATM   17  C13   D T 302       8.309  26.945  14.310  1.00 39.31     0.026 A 
ENDBRANCH   1  10
TORSDOF 2
ENDMDL
MODEL 4
REMARK VINA RESULT:      -7.8      3.619      4.106
REMARK  2 active torsions:
REMARK  status: ('A' for Active; 'I' for Inactive)
REMARK    1  A    between atoms: C5_4  and  O7_13 
REMARK    2  A    between atoms: C8_10  and  O7_13 
ROOT
HETATM    1  O7    D T 302       7.201  27.886  14.134  1.00 32.50    -0.304 OA
ENDROOT
BRANCH   1   2
HETATM    2  C5    D T 302       7.206  28.480  15.386  1.00 32.49     0.125 A 
HETATM    3  C6    D T 302       8.449  28.942  15.863  1.00 34.76     0.154 A 
HETATM    4  C1    D T 302       8.533  29.530  17.115  1.00 31.51     0.041 A 
HETATM    5  O17   D T 302       9.540  28.783  15.056  1.00 36.08    -0.188 OA
HETATM    6  C2    D T 302       7.394  29.622  17.896  1.00 34.46     0.060 A 
HETATM    7  C3    D T 302       6.170  29.171  17.432  1.00 34.68     0.014 A 
HETATM    8 CL14   D T 302       7.512  30.302  19.498  1.00 37.27    -0.082 Cl
HETATM    9  C4    D T 302       6.080  28.601  16.170  1.00 32.81     0.028 A 
ENDBRANCH   1   2
BRANCH   1  10
HETATM   10  C8    D T 302       6.389  28.454  13.148  1.00 37.25     0.111 A 
HETATM   11  C9    D T 302       5.498  27.623  12.488  1.00 38.38     0.081 A 
HETATM   12  C10   D T 302       4.670  28.084  11.482  1.00 40.82     0.025 A 
HETATM   13 CL16   D T 302       5.446  25.952  12.919  1.00 44.81    -0.080 Cl
HETATM   14  C11   D T 302       4.752  29.420  11.119  1.00 44.65     0.059 A 
HETATM   15  C12   D T 302       5.617  30.280  11.769  1.00 39.54     0.013 A 
HETATM   16 CL15   D T 302       3.734  30.006   9.826  1.00 46.21    -0.082 Cl
HETATM   17  C13   D T 302       6.435  29.798  12.785  1.00 39.31     0.026 A 
ENDBRANCH   1  10
TORSDOF 2
ENDMDL
MODEL 5
REMARK VINA RESULT:      -7.8      1.265      5.875
REMARK  2 active torsions:
REMARK  status: ('A' for Active; 'I' for Inactive)
REMARK    1  A    between atoms: C5_4  and  O7_13 
REMARK    2  A    between atoms: C8_10  and  O7_13 
ROOT
HETATM    1  O7    D T 302       8.636  28.246  13.596  1.00 32.50    -0.304 OA
ENDROOT
BRANCH   1   2
HETATM    2  C5    D T 302       7.587  28.617  12.769  1.00 32.49     0.125 A 
HETATM    3  C6    D T 302       6.515  29.300  13.377  1.00 34.76     0.154 A 
HETATM    4  C1    D T 302       5.422  29.686  12.616  1.00 31.51     0.041 A 
HETATM    5  O17   D T 302       6.597  29.555  14.717  1.00 36.08    -0.188 OA
HETATM    6  C2    D T 302       5.386  29.359  11.271  1.00 34.46     0.060 A 
HETATM    7  C3    D T 302       6.439  28.690  10.669  1.00 34.68     0.014 A 
HETATM    8 CL14   D T 302       3.983  29.785  10.327  1.00 37.27    -0.082 Cl
HETATM    9  C4    D T 302       7.543  28.321  11.425  1.00 32.81     0.028 A 
ENDBRANCH   1   2
BRANCH   1  10
HETATM   10  C8    D T 302       8.785  26.887  13.887  1.00 37.25     0.111 A 
HETATM   11  C9    D T 302       9.932  26.253  13.435  1.00 38.38     0.081 A 
HETATM   12  C10   D T 302      10.160  24.907  13.650  1.00 40.82     0.025 A 
HETATM   13 CL16   D T 302      11.094  27.171  12.549  1.00 44.81    -0.080 Cl
HETATM   14  C11   D T 302       9.198  24.173  14.329  1.00 44.65     0.059 A 
HETATM   15  C12   D T 302       8.052  24.778  14.809  1.00 39.54     0.013 A 
HETATM   16 CL15   D T 302       9.461  22.464  14.578  1.00 46.21    -0.082 Cl
HETATM   17  C13   D T 302       7.845  26.137  14.589  1.00 39.31     0.026 A 
ENDBRANCH   1  10
TORSDOF 2
ENDMDL
MODEL 6
REMARK VINA RESULT:      -7.6      4.098      4.739
REMARK  2 active torsions:
REMARK  status: ('A' for Active; 'I' for Inactive)
REMARK    1  A    between atoms: C5_4  and  O7_13 
REMARK    2  A    between atoms: C8_10  and  O7_13 
ROOT
HETATM    1  O7    D T 302       7.667  28.034  15.115  1.00 32.50    -0.304 OA
ENDROOT
BRANCH   1   2
HETATM    2  C5    D T 302       7.654  28.816  16.259  1.00 32.49     0.125 A 
HETATM    3  C6    D T 302       8.159  28.226  17.435  1.00 34.76     0.154 A 
HETATM    4  C1    D T 302       8.161  28.943  18.621  1.00 31.51     0.041 A 
HETATM    5  O17   D T 302       8.632  26.947  17.354  1.00 36.08    -0.188 OA
HETATM    6  C2    D T 302       7.628  30.221  18.640  1.00 34.46     0.060 A 
HETATM    7  C3    D T 302       7.133  30.806  17.486  1.00 34.68     0.014 A 
HETATM    8 CL14   D T 302       7.569  31.098  20.146  1.00 37.27    -0.082 Cl
HETATM    9  C4    D T 302       7.150  30.097  16.293  1.00 32.81     0.028 A 
ENDBRANCH   1   2
BRANCH   1  10
HETATM   10  C8    D T 302       6.854  28.428  14.049  1.00 37.25     0.111 A 
HETATM   11  C9    D T 302       7.475  28.922  12.912  1.00 38.38     0.081 A 
HETATM   12  C10   D T 302       6.758  29.360  11.815  1.00 40.82     0.025 A 
HETATM   13 CL16   D T 302       9.198  29.020  12.883  1.00 44.81    -0.080 Cl
HETATM   14  C11   D T 302       5.372  29.312  11.868  1.00 44.65     0.059 A 
HETATM   15  C12   D T 302       4.722  28.809  12.979  1.00 39.54     0.013 A 
HETATM   16 CL15   D T 302       4.455  29.894  10.500  1.00 46.21    -0.082 Cl
HETATM   17  C13   D T 302       5.463  28.365  14.070  1.00 39.31     0.026 A 
ENDBRANCH   1  10
TORSDOF 2
ENDMDL
MODEL 7
REMARK VINA RESULT:      -7.5      2.221      5.873
REMARK  2 active torsions:
REMARK  status: ('A' for Active; 'I' for Inactive)
REMARK    1  A    between atoms: C5_4  and  O7_13 
REMARK    2  A    between atoms: C8_10  and  O7_13 
ROOT
HETATM    1  O7    D T 302       7.540  25.542  12.466  1.00 32.50    -0.304 OA
ENDROOT
BRANCH   1   2
HETATM    2  C5    D T 302       6.684  26.512  11.969  1.00 32.49     0.125 A 
HETATM    3  C6    D T 302       7.165  27.291  10.898  1.00 34.76     0.154 A 
HETATM    4  C1    D T 302       6.371  28.292  10.362  1.00 31.51     0.041 A 
HETATM    5  O17   D T 302       8.419  27.022  10.426  1.00 36.08    -0.188 OA
HETATM    6  C2    D T 302       5.126  28.537  10.916  1.00 34.46     0.060 A 
HETATM    7  C3    D T 302       4.648  27.773  11.967  1.00 34.68     0.014 A 
HETATM    8 CL14   D T 302       4.153  29.840  10.285  1.00 37.27    -0.082 Cl
HETATM    9  C4    D T 302       5.434  26.756  12.492  1.00 32.81     0.028 A 
ENDBRANCH   1   2
BRANCH   1  10
HETATM   10  C8    D T 302       7.965  25.668  13.792  1.00 37.25     0.111 A 
HETATM   11  C9    D T 302       7.867  24.553  14.610  1.00 38.38     0.081 A 
HETATM   12  C10   D T 302       8.238  24.583  15.941  1.00 40.82     0.025 A 
HETATM   13 CL16   D T 302       7.230  23.092  13.948  1.00 44.81    -0.080 Cl
HETATM   14  C11   D T 302       8.710  25.776  16.469  1.00 44.65     0.059 A 
HETATM   15  C12   D T 302       8.838  26.901  15.677  1.00 39.54     0.013 A 
HETATM   16 CL15   D T 302       9.151  25.834  18.159  1.00 46.21    -0.082 Cl
HETATM   17  C13   D T 302       8.467  26.847  14.337  1.00 39.31     0.026 A 
ENDBRANCH   1  10
TORSDOF 2
ENDMDL
MODEL 8
REMARK VINA RESULT:      -7.5      1.807      6.079
REMARK  2 active torsions:
REMARK  status: ('A' for Active; 'I' for Inactive)
REMARK    1  A    between atoms: C5_4  and  O7_13 
REMARK    2  A    between atoms: C8_10  and  O7_13 
ROOT
HETATM    1  O7    D T 302      10.068  26.714  13.272  1.00 32.50    -0.304 OA
ENDROOT
BRANCH   1   2
HETATM    2  C5    D T 302       9.004  27.563  13.012  1.00 32.49     0.125 A 
HETATM    3  C6    D T 302       8.606  27.686  11.666  1.00 34.76     0.154 A 
HETATM    4  C1    D T 302       7.561  28.532  11.329  1.00 31.51     0.041 A 
HETATM    5  O17   D T 302       9.284  26.955  10.732  1.00 36.08    -0.188 OA
HETATM    6  C2    D T 302       6.946  29.275  12.323  1.00 34.46     0.060 A 
HETATM    7  C3    D T 302       7.332  29.156  13.648  1.00 34.68     0.014 A 
HETATM    8 CL14   D T 302       5.675  30.389  11.891  1.00 37.27    -0.082 Cl
HETATM    9  C4    D T 302       8.364  28.293  13.989  1.00 32.81     0.028 A 
ENDBRANCH   1   2
BRANCH   1  10
HETATM   10  C8    D T 302       9.788  25.492  13.891  1.00 37.25     0.111 A 
HETATM   11  C9    D T 302      10.746  24.967  14.744  1.00 38.38     0.081 A 
HETATM   12  C10   D T 302      10.575  23.754  15.384  1.00 40.82     0.025 A 
HETATM   13 CL16   D T 302      12.213  25.844  14.986  1.00 44.81    -0.080 Cl
HETATM   14  C11   D T 302       9.408  23.041  15.148  1.00 44.65     0.059 A 
HETATM   15  C12   D T 302       8.424  23.545  14.318  1.00 39.54     0.013 A 
HETATM   16 CL15   D T 302       9.195  21.492  15.926  1.00 46.21    -0.082 Cl
HETATM   17  C13   D T 302       8.614  24.772  13.690  1.00 39.31     0.026 A 
ENDBRANCH   1  10
TORSDOF 2
ENDMDL
MODEL 9
REMARK VINA RESULT:      -7.2      8.459     10.898
REMARK  2 active torsions:
REMARK  status: ('A' for Active; 'I' for Inactive)
REMARK    1  A    between atoms: C5_4  and  O7_13 
REMARK    2  A    between atoms: C8_10  and  O7_13 
ROOT
HETATM    1  O7    D T 302       9.342  22.992  22.281  1.00 32.50    -0.304 OA
ENDROOT
BRANCH   1   2
HETATM    2  C5    D T 302      10.610  22.858  22.823  1.00 32.49     0.125 A 
HETATM    3  C6    D T 302      11.091  23.942  23.584  1.00 34.76     0.154 A 
HETATM    4  C1    D T 302      12.358  23.886  24.142  1.00 31.51     0.041 A 
HETATM    5  O17   D T 302      10.273  25.025  23.738  1.00 36.08    -0.188 OA
HETATM    6  C2    D T 302      13.150  22.774  23.910  1.00 34.46     0.060 A 
HETATM    7  C3    D T 302      12.681  21.705  23.166  1.00 34.68     0.014 A 
HETATM    8 CL14   D T 302      14.770  22.731  24.557  1.00 37.27    -0.082 Cl
HETATM    9  C4    D T 302      11.405  21.750  22.624  1.00 32.81     0.028 A 
ENDBRANCH   1   2
BRANCH   1  10
HETATM   10  C8    D T 302       9.218  22.910  20.890  1.00 37.25     0.111 A 
HETATM   11  C9    D T 302       8.603  21.786  20.362  1.00 38.38     0.081 A 
HETATM   12  C10   D T 302       8.455  21.600  19.001  1.00 40.82     0.025 A 
HETATM   13 CL16   D T 302       8.034  20.566  21.444  1.00 44.81    -0.080 Cl
HETATM   14  C11   D T 302       8.953  22.571  18.144  1.00 44.65     0.059 A 
HETATM   15  C12   D T 302       9.555  23.712  18.637  1.00 39.54     0.013 A 
HETATM   16 CL15   D T 302       8.800  22.331  16.420  1.00 46.21    -0.082 Cl
HETATM   17  C13   D T 302       9.687  23.883  20.012  1.00 39.31     0.026 A 
ENDBRANCH   1  10
TORSDOF 2
ENDMDL
