MODEL 1
REMARK VINA RESULT:    -8.601      0.000      0.000
REMARK INTER + INTRA:         -11.423
REMARK INTER:                 -11.115
REMARK INTRA:                  -0.308
REMARK UNBOUND:                -0.308
REMARK  5 active torsions:
REMARK  status: ('A' for Active; 'I' for Inactive)
REMARK    1  A    between atoms: C13_1  and  C24_5 
REMARK    2  A    between atoms: C15_2  and  N17_25 
REMARK    3  A    between atoms: C02_8  and  C03_9 
REMARK    4  A    between atoms: C02_8  and  N10_23 
REMARK    5  A    between atoms: C18_18  and  N17_25 
ROOT
HETATM    1  C13   D T1201       2.754 -17.554   7.979  1.00 13.45    -0.016 A 
HETATM    2  C15   D T1201       3.727 -15.598   6.900  1.00 15.16     0.132 A 
HETATM    3  C11   D T1201       3.145 -15.465   9.175  1.00 14.53     0.127 A 
HETATM    4  C12   D T1201       2.702 -16.790   9.169  1.00 14.32     0.062 A 
HETATM    5  C14   D T1201       3.315 -16.923   6.844  1.00 15.48     0.063 A 
HETATM    6  N10   D T1201       3.082 -14.687  10.281  1.00 15.96    -0.366 N 
HETATM    7  N16   D T1201       3.650 -14.890   8.040  1.00 13.41    -0.214 NA
HETATM    8 1H10   D T1201       2.742 -15.090  11.162  1.00 19.16     0.161 HD
ENDROOT
BRANCH   6   9
HETATM    9  C02   D T1201       3.467 -13.284  10.336  1.00 14.28     0.112 C 
HETATM   10  C01   D T1201       2.576 -12.438   9.441  1.00 15.05     0.037 C 
BRANCH   9  11
HETATM   11  C03   D T1201       3.420 -12.720  11.811  1.00 12.81    -0.036 A 
HETATM   12  C04   D T1201       3.785 -11.380  12.111  1.00 14.87     0.012 A 
HETATM   13  C05   D T1201       3.784 -10.891  13.418  1.00 15.83     0.043 A 
HETATM   14  C06   D T1201       3.423 -11.750  14.496  1.00 15.79     0.116 A 
HETATM   15  C07   D T1201       3.046 -13.077  14.195  1.00 13.70     0.043 A 
HETATM   16  F09   D T1201       3.389 -11.330  15.732  1.00 15.90    -0.206 F 
HETATM   17  C08   D T1201       3.052 -13.529  12.895  1.00 12.07     0.012 A 
ENDBRANCH   9  11
ENDBRANCH   6   9
BRANCH   1  18
HETATM   18  C24   D T1201       2.383 -18.973   7.967  1.00 16.85     0.011 A 
HETATM   19  C28   D T1201       2.031 -19.820   9.078  1.00 24.34     0.152 A 
HETATM   20  N27   D T1201       1.826 -21.086   8.673  1.00 26.13    -0.185 NA
HETATM   21  N26   D T1201       2.047 -21.129   7.349  1.00 20.67    -0.285 N 
HETATM   22  C25   D T1201       2.394 -19.868   6.879  1.00 19.70     0.125 A 
HETATM   23  C29   D T1201       1.925 -22.442   6.439  1.00 21.32     0.179 C 
ENDBRANCH   1  18
BRANCH   2  24
HETATM   24  N17   D T1201       4.249 -15.035   5.758  1.00 13.89    -0.324 N 
HETATM   25 1H17   D T1201       5.276 -14.865   5.764  1.00 16.67     0.169 HD
BRANCH  24  26
HETATM   26  C18   D T1201       3.626 -14.659   4.607  1.00 12.52     0.146 A 
HETATM   27  C23   D T1201       2.720 -15.488   3.854  1.00 13.01     0.166 A 
HETATM   28  N22   D T1201       2.132 -15.049   2.732  1.00 12.07    -0.268 NA
HETATM   29  C21   D T1201       2.436 -13.806   2.293  1.00 13.05     0.135 A 
HETATM   30  C20   D T1201       3.302 -12.999   3.045  1.00 11.83     0.138 A 
HETATM   31  N19   D T1201       3.883 -13.425   4.157  1.00 12.49    -0.240 NA
ENDBRANCH  24  26
ENDBRANCH   2  24
TORSDOF 5
ENDMDL
MODEL 2
REMARK VINA RESULT:    -8.374      3.077      5.706
REMARK INTER + INTRA:         -11.130
REMARK INTER:                 -10.386
REMARK INTRA:                  -0.744
REMARK UNBOUND:                -0.308
REMARK  5 active torsions:
REMARK  status: ('A' for Active; 'I' for Inactive)
REMARK    1  A    between atoms: C13_1  and  C24_5 
REMARK    2  A    between atoms: C15_2  and  N17_25 
REMARK    3  A    between atoms: C02_8  and  C03_9 
REMARK    4  A    between atoms: C02_8  and  N10_23 
REMARK    5  A    between atoms: C18_18  and  N17_25 
ROOT
HETATM    1  C13   D T1201       2.400 -19.497   8.224  1.00 13.45    -0.016 A 
HETATM    2  C15   D T1201       3.112 -18.454  10.308  1.00 15.16     0.132 A 
HETATM    3  C11   D T1201       3.813 -17.509   8.271  1.00 14.53     0.127 A 
HETATM    4  C12   D T1201       3.117 -18.481   7.547  1.00 14.32     0.062 A 
HETATM    5  C14   D T1201       2.391 -19.434   9.637  1.00 15.48     0.063 A 
HETATM    6  N10   D T1201       4.540 -16.541   7.666  1.00 15.96    -0.366 N 
HETATM    7  N16   D T1201       3.800 -17.512   9.639  1.00 13.41    -0.214 NA
HETATM    8 1H10   D T1201       4.547 -16.482   6.641  1.00 19.16     0.161 HD
ENDROOT
BRANCH   6   9
HETATM    9  C02   D T1201       5.337 -15.541   8.362  1.00 14.28     0.112 C 
HETATM   10  C01   D T1201       6.263 -14.814   7.400  1.00 15.05     0.037 C 
BRANCH   9  11
HETATM   11  C03   D T1201       4.430 -14.489   9.116  1.00 12.81    -0.036 A 
HETATM   12  C04   D T1201       3.854 -13.379   8.442  1.00 14.87     0.012 A 
HETATM   13  C05   D T1201       3.086 -12.426   9.113  1.00 15.83     0.043 A 
HETATM   14  C06   D T1201       2.876 -12.547  10.518  1.00 15.79     0.116 A 
HETATM   15  C07   D T1201       3.436 -13.659  11.184  1.00 13.70     0.043 A 
HETATM   16  F09   D T1201       2.149 -11.691  11.183  1.00 15.90    -0.206 F 
HETATM   17  C08   D T1201       4.184 -14.585  10.493  1.00 12.07     0.012 A 
ENDBRANCH   9  11
ENDBRANCH   6   9
BRANCH   1  18
HETATM   18  C24   D T1201       1.586 -20.472   7.491  1.00 16.85     0.011 A 
HETATM   19  C28   D T1201       0.868 -21.612   8.004  1.00 24.34     0.152 A 
HETATM   20  N27   D T1201       0.299 -22.311   7.007  1.00 26.13    -0.185 NA
HETATM   21  N26   D T1201       0.623 -21.708   5.851  1.00 20.67    -0.285 N 
HETATM   22  C25   D T1201       1.409 -20.589   6.098  1.00 19.70     0.125 A 
HETATM   23  C29   D T1201       0.166 -22.202   4.397  1.00 21.32     0.179 C 
ENDBRANCH   1  18
BRANCH   2  24
HETATM   24  N17   D T1201       3.079 -18.456  11.683  1.00 13.89    -0.324 N 
HETATM   25 1H17   D T1201       2.957 -19.386  12.133  1.00 16.67     0.169 HD
BRANCH  24  26
HETATM   26  C18   D T1201       3.179 -17.419  12.560  1.00 12.52     0.146 A 
HETATM   27  C23   D T1201       2.075 -16.605  13.000  1.00 13.01     0.166 A 
HETATM   28  N22   D T1201       2.245 -15.603  13.876  1.00 12.07    -0.268 NA
HETATM   29  C21   D T1201       3.496 -15.345  14.320  1.00 13.05     0.135 A 
HETATM   30  C20   D T1201       4.560 -16.157  13.903  1.00 11.83     0.138 A 
HETATM   31  N19   D T1201       4.399 -17.150  13.041  1.00 12.49    -0.240 NA
ENDBRANCH  24  26
ENDBRANCH   2  24
TORSDOF 5
ENDMDL
MODEL 3
REMARK VINA RESULT:    -8.311      1.269      5.375
REMARK INTER + INTRA:         -11.048
REMARK INTER:                 -10.846
REMARK INTRA:                  -0.203
REMARK UNBOUND:                -0.308
REMARK  5 active torsions:
REMARK  status: ('A' for Active; 'I' for Inactive)
REMARK    1  A    between atoms: C13_1  and  C24_5 
REMARK    2  A    between atoms: C15_2  and  N17_25 
REMARK    3  A    between atoms: C02_8  and  C03_9 
REMARK    4  A    between atoms: C02_8  and  N10_23 
REMARK    5  A    between atoms: C18_18  and  N17_25 
ROOT
HETATM    1  C13   D T1201       3.388 -15.445   6.271  1.00 13.45    -0.016 A 
HETATM    2  C15   D T1201       3.516 -17.437   7.668  1.00 15.16     0.132 A 
HETATM    3  C11   D T1201       3.192 -15.348   8.700  1.00 14.53     0.127 A 
HETATM    4  C12   D T1201       3.198 -14.703   7.461  1.00 14.32     0.062 A 
HETATM    5  C14   D T1201       3.514 -16.847   6.411  1.00 15.48     0.063 A 
HETATM    6  N10   D T1201       3.048 -14.674   9.865  1.00 15.96    -0.366 N 
HETATM    7  N16   D T1201       3.352 -16.705   8.783  1.00 13.41    -0.214 NA
HETATM    8 1H10   D T1201       2.891 -13.660   9.844  1.00 19.16     0.161 HD
ENDROOT
BRANCH   6   9
HETATM    9  C02   D T1201       3.097 -15.279  11.188  1.00 14.28     0.112 C 
HETATM   10  C01   D T1201       4.335 -16.147  11.347  1.00 15.05     0.037 C 
BRANCH   9  11
HETATM   11  C03   D T1201       3.067 -14.189  12.332  1.00 12.81    -0.036 A 
HETATM   12  C04   D T1201       3.461 -12.845  12.094  1.00 14.87     0.012 A 
HETATM   13  C05   D T1201       3.473 -11.890  13.112  1.00 15.83     0.043 A 
HETATM   14  C06   D T1201       3.098 -12.260  14.436  1.00 15.79     0.116 A 
HETATM   15  C07   D T1201       2.692 -13.592  14.668  1.00 13.70     0.043 A 
HETATM   16  F09   D T1201       3.077 -11.395  15.415  1.00 15.90    -0.206 F 
HETATM   17  C08   D T1201       2.684 -14.509  13.642  1.00 12.07     0.012 A 
ENDBRANCH   9  11
ENDBRANCH   6   9
BRANCH   1  18
HETATM   18  C24   D T1201       3.306 -14.806   4.953  1.00 16.85     0.011 A 
HETATM   19  C28   D T1201       3.876 -13.554   4.523  1.00 24.34     0.152 A 
HETATM   20  N27   D T1201       3.517 -13.271   3.258  1.00 26.13    -0.185 NA
HETATM   21  N26   D T1201       2.716 -14.261   2.832  1.00 20.67    -0.285 N 
HETATM   22  C25   D T1201       2.556 -15.213   3.832  1.00 19.70     0.125 A 
HETATM   23  C29   D T1201       2.044 -14.339   1.380  1.00 21.32     0.179 C 
ENDBRANCH   1  18
BRANCH   2  24
HETATM   24  N17   D T1201       3.660 -18.804   7.740  1.00 13.89    -0.324 N 
HETATM   25 1H17   D T1201       4.632 -19.151   7.868  1.00 16.67     0.169 HD
BRANCH  24  26
HETATM   26  C18   D T1201       2.719 -19.785   7.668  1.00 12.52     0.146 A 
HETATM   27  C23   D T1201       2.113 -20.429   8.806  1.00 13.01     0.166 A 
HETATM   28  N22   D T1201       1.183 -21.383   8.662  1.00 12.07    -0.268 NA
HETATM   29  C21   D T1201       0.841 -21.762   7.409  1.00 13.05     0.135 A 
HETATM   30  C20   D T1201       1.421 -21.114   6.308  1.00 11.83     0.138 A 
HETATM   31  N19   D T1201       2.337 -20.167   6.443  1.00 12.49    -0.240 NA
ENDBRANCH  24  26
ENDBRANCH   2  24
TORSDOF 5
ENDMDL
MODEL 4
REMARK VINA RESULT:    -7.938      3.307      8.466
REMARK INTER + INTRA:         -10.567
REMARK INTER:                 -10.713
REMARK INTRA:                   0.146
REMARK UNBOUND:                -0.308
REMARK  5 active torsions:
REMARK  status: ('A' for Active; 'I' for Inactive)
REMARK    1  A    between atoms: C13_1  and  C24_5 
REMARK    2  A    between atoms: C15_2  and  N17_25 
REMARK    3  A    between atoms: C02_8  and  C03_9 
REMARK    4  A    between atoms: C02_8  and  N10_23 
REMARK    5  A    between atoms: C18_18  and  N17_25 
ROOT
HETATM    1  C13   D T1201       3.561 -13.765  10.482  1.00 13.45    -0.016 A 
HETATM    2  C15   D T1201       3.790 -16.079   9.752  1.00 15.16     0.132 A 
HETATM    3  C11   D T1201       3.808 -14.372   8.133  1.00 14.53     0.127 A 
HETATM    4  C12   D T1201       3.664 -13.394   9.121  1.00 14.32     0.062 A 
HETATM    5  C14   D T1201       3.662 -15.146  10.773  1.00 15.48     0.063 A 
HETATM    6  N10   D T1201       3.876 -14.065   6.817  1.00 15.96    -0.366 N 
HETATM    7  N16   D T1201       3.868 -15.699   8.465  1.00 13.41    -0.214 NA
HETATM    8 1H10   D T1201       3.870 -13.080   6.528  1.00 19.16     0.161 HD
ENDROOT
BRANCH   6   9
HETATM    9  C02   D T1201       3.962 -15.039   5.738  1.00 14.28     0.112 C 
HETATM   10  C01   D T1201       3.194 -16.305   6.082  1.00 15.05     0.037 C 
BRANCH   9  11
HETATM   11  C03   D T1201       3.425 -14.451   4.373  1.00 12.81    -0.036 A 
HETATM   12  C04   D T1201       2.519 -15.176   3.552  1.00 14.87     0.012 A 
HETATM   13  C05   D T1201       2.074 -14.676   2.327  1.00 15.83     0.043 A 
HETATM   14  C06   D T1201       2.544 -13.413   1.864  1.00 15.79     0.116 A 
HETATM   15  C07   D T1201       3.431 -12.687   2.688  1.00 13.70     0.043 A 
HETATM   16  F09   D T1201       2.140 -12.898   0.734  1.00 15.90    -0.206 F 
HETATM   17  C08   D T1201       3.847 -13.204   3.894  1.00 12.07     0.012 A 
ENDBRANCH   9  11
ENDBRANCH   6   9
BRANCH   1  18
HETATM   18  C24   D T1201       3.502 -12.756  11.545  1.00 16.85     0.011 A 
HETATM   19  C28   D T1201       3.451 -11.321  11.422  1.00 24.34     0.152 A 
HETATM   20  N27   D T1201       3.482 -10.732  12.630  1.00 26.13    -0.185 NA
HETATM   21  N26   D T1201       3.576 -11.704  13.553  1.00 20.67    -0.285 N 
HETATM   22  C25   D T1201       3.597 -12.950  12.937  1.00 19.70     0.125 A 
HETATM   23  C29   D T1201       3.649 -11.464  15.135  1.00 21.32     0.179 C 
ENDBRANCH   1  18
BRANCH   2  24
HETATM   24  N17   D T1201       3.867 -17.408  10.098  1.00 13.89    -0.324 N 
HETATM   25 1H17   D T1201       4.360 -17.618  10.990  1.00 16.67     0.169 HD
BRANCH  24  26
HETATM   26  C18   D T1201       3.395 -18.508   9.448  1.00 12.52     0.146 A 
HETATM   27  C23   D T1201       2.097 -19.095   9.661  1.00 13.01     0.166 A 
HETATM   28  N22   D T1201       1.691 -20.174   8.977  1.00 12.07    -0.268 NA
HETATM   29  C21   D T1201       2.549 -20.732   8.092  1.00 13.05     0.135 A 
HETATM   30  C20   D T1201       3.802 -20.140   7.875  1.00 11.83     0.138 A 
HETATM   31  N19   D T1201       4.207 -19.071   8.545  1.00 12.49    -0.240 NA
ENDBRANCH  24  26
ENDBRANCH   2  24
TORSDOF 5
ENDMDL
MODEL 5
REMARK VINA RESULT:    -7.878      3.208      7.556
REMARK INTER + INTRA:         -10.489
REMARK INTER:                  -9.543
REMARK INTRA:                  -0.945
REMARK UNBOUND:                -0.308
REMARK  5 active torsions:
REMARK  status: ('A' for Active; 'I' for Inactive)
REMARK    1  A    between atoms: C13_1  and  C24_5 
REMARK    2  A    between atoms: C15_2  and  N17_25 
REMARK    3  A    between atoms: C02_8  and  C03_9 
REMARK    4  A    between atoms: C02_8  and  N10_23 
REMARK    5  A    between atoms: C18_18  and  N17_25 
ROOT
HETATM    1  C13   D T1201       3.532 -14.872   9.056  1.00 13.45    -0.016 A 
HETATM    2  C15   D T1201       4.064 -15.538   6.773  1.00 15.16     0.132 A 
HETATM    3  C11   D T1201       3.420 -17.193   8.316  1.00 14.53     0.127 A 
HETATM    4  C12   D T1201       3.263 -16.235   9.321  1.00 14.32     0.062 A 
HETATM    5  C14   D T1201       3.908 -14.545   7.732  1.00 15.48     0.063 A 
HETATM    6  N10   D T1201       3.208 -18.511   8.534  1.00 15.96    -0.366 N 
HETATM    7  N16   D T1201       3.819 -16.829   7.059  1.00 13.41    -0.214 NA
HETATM    8 1H10   D T1201       2.874 -18.823   9.454  1.00 19.16     0.161 HD
ENDROOT
BRANCH   6   9
HETATM    9  C02   D T1201       3.415 -19.563   7.549  1.00 14.28     0.112 C 
HETATM   10  C01   D T1201       4.606 -20.432   7.920  1.00 15.05     0.037 C 
BRANCH   9  11
HETATM   11  C03   D T1201       2.132 -20.470   7.381  1.00 12.81    -0.036 A 
HETATM   12  C04   D T1201       1.595 -21.214   8.466  1.00 14.87     0.012 A 
HETATM   13  C05   D T1201       0.486 -22.047   8.311  1.00 15.83     0.043 A 
HETATM   14  C06   D T1201      -0.127 -22.180   7.032  1.00 15.79     0.116 A 
HETATM   15  C07   D T1201       0.397 -21.428   5.958  1.00 13.70     0.043 A 
HETATM   16  F09   D T1201      -1.178 -22.933   6.844  1.00 15.90    -0.206 F 
HETATM   17  C08   D T1201       1.488 -20.610   6.144  1.00 12.07     0.012 A 
ENDBRANCH   9  11
ENDBRANCH   6   9
BRANCH   1  18
HETATM   18  C24   D T1201       3.286 -13.836  10.065  1.00 16.85     0.011 A 
HETATM   19  C28   D T1201       3.279 -12.404   9.902  1.00 24.34     0.152 A 
HETATM   20  N27   D T1201       3.088 -11.786  11.080  1.00 26.13    -0.185 NA
HETATM   21  N26   D T1201       2.991 -12.735  12.026  1.00 20.67    -0.285 N 
HETATM   22  C25   D T1201       3.112 -13.996  11.454  1.00 19.70     0.125 A 
HETATM   23  C29   D T1201       2.765 -12.457  13.587  1.00 21.32     0.179 C 
ENDBRANCH   1  18
BRANCH   2  24
HETATM   24  N17   D T1201       4.449 -15.159   5.508  1.00 13.89    -0.324 N 
HETATM   25 1H17   D T1201       5.471 -15.183   5.318  1.00 16.67     0.169 HD
BRANCH  24  26
HETATM   26  C18   D T1201       3.692 -14.751   4.451  1.00 12.52     0.146 A 
HETATM   27  C23   D T1201       2.743 -15.578   3.751  1.00 13.01     0.166 A 
HETATM   28  N22   D T1201       2.023 -15.107   2.723  1.00 12.07    -0.268 NA
HETATM   29  C21   D T1201       2.230 -13.831   2.327  1.00 13.05     0.135 A 
HETATM   30  C20   D T1201       3.140 -13.027   3.029  1.00 11.83     0.138 A 
HETATM   31  N19   D T1201       3.852 -13.485   4.048  1.00 12.49    -0.240 NA
ENDBRANCH  24  26
ENDBRANCH   2  24
TORSDOF 5
ENDMDL
MODEL 6
REMARK VINA RESULT:    -7.663      3.704      7.501
REMARK INTER + INTRA:         -10.211
REMARK INTER:                  -9.436
REMARK INTRA:                  -0.775
REMARK UNBOUND:                -0.308
REMARK  5 active torsions:
REMARK  status: ('A' for Active; 'I' for Inactive)
REMARK    1  A    between atoms: C13_1  and  C24_5 
REMARK    2  A    between atoms: C15_2  and  N17_25 
REMARK    3  A    between atoms: C02_8  and  C03_9 
REMARK    4  A    between atoms: C02_8  and  N10_23 
REMARK    5  A    between atoms: C18_18  and  N17_25 
ROOT
HETATM    1  C13   D T1201       2.430 -19.792   8.325  1.00 13.45    -0.016 A 
HETATM    2  C15   D T1201       2.301 -17.683   9.539  1.00 15.16     0.132 A 
HETATM    3  C11   D T1201       2.870 -17.644   7.257  1.00 14.53     0.127 A 
HETATM    4  C12   D T1201       2.764 -19.035   7.177  1.00 14.32     0.062 A 
HETATM    5  C14   D T1201       2.167 -19.066   9.510  1.00 15.48     0.063 A 
HETATM    6  N10   D T1201       3.221 -16.883   6.194  1.00 15.96    -0.366 N 
HETATM    7  N16   D T1201       2.637 -16.991   8.437  1.00 13.41    -0.214 NA
HETATM    8 1H10   D T1201       3.369 -17.330   5.282  1.00 19.16     0.161 HD
ENDROOT
BRANCH   6   9
HETATM    9  C02   D T1201       3.410 -15.440   6.228  1.00 14.28     0.112 C 
HETATM   10  C01   D T1201       4.794 -15.083   6.745  1.00 15.05     0.037 C 
BRANCH   9  11
HETATM   11  C03   D T1201       3.193 -14.786   4.806  1.00 12.81    -0.036 A 
HETATM   12  C04   D T1201       2.414 -15.423   3.802  1.00 14.87     0.012 A 
HETATM   13  C05   D T1201       2.253 -14.867   2.532  1.00 15.83     0.043 A 
HETATM   14  C06   D T1201       2.893 -13.635   2.211  1.00 15.79     0.116 A 
HETATM   15  C07   D T1201       3.654 -12.996   3.214  1.00 13.70     0.043 A 
HETATM   16  F09   D T1201       2.755 -13.069   1.042  1.00 15.90    -0.206 F 
HETATM   17  C08   D T1201       3.789 -13.566   4.460  1.00 12.07     0.012 A 
ENDBRANCH   9  11
ENDBRANCH   6   9
BRANCH   1  18
HETATM   18  C24   D T1201       2.221 -21.242   8.247  1.00 16.85     0.011 A 
HETATM   19  C28   D T1201       2.974 -22.221   7.505  1.00 24.34     0.152 A 
HETATM   20  N27   D T1201       2.428 -23.443   7.627  1.00 26.13    -0.185 NA
HETATM   21  N26   D T1201       1.333 -23.323   8.396  1.00 20.67    -0.285 N 
HETATM   22  C25   D T1201       1.166 -22.001   8.791  1.00 19.70     0.125 A 
HETATM   23  C29   D T1201       0.361 -24.529   8.805  1.00 21.32     0.179 C 
ENDBRANCH   1  18
BRANCH   2  24
HETATM   24  N17   D T1201       2.048 -17.035  10.726  1.00 13.89    -0.324 N 
HETATM   25 1H17   D T1201       1.053 -16.791  10.907  1.00 16.67     0.169 HD
BRANCH  24  26
HETATM   26  C18   D T1201       2.906 -16.656  11.714  1.00 12.52     0.146 A 
HETATM   27  C23   D T1201       3.531 -15.362  11.808  1.00 13.01     0.166 A 
HETATM   28  N22   D T1201       4.360 -15.052  12.816  1.00 12.07    -0.268 NA
HETATM   29  C21   D T1201       4.629 -16.003  13.739  1.00 13.05     0.135 A 
HETATM   30  C20   D T1201       3.999 -17.253  13.651  1.00 11.83     0.138 A 
HETATM   31  N19   D T1201       3.176 -17.564  12.660  1.00 12.49    -0.240 NA
ENDBRANCH  24  26
ENDBRANCH   2  24
TORSDOF 5
ENDMDL
MODEL 7
REMARK VINA RESULT:    -7.079      3.515      7.857
REMARK INTER + INTRA:          -9.456
REMARK INTER:                  -8.755
REMARK INTRA:                  -0.701
REMARK UNBOUND:                -0.308
REMARK  5 active torsions:
REMARK  status: ('A' for Active; 'I' for Inactive)
REMARK    1  A    between atoms: C13_1  and  C24_5 
REMARK    2  A    between atoms: C15_2  and  N17_25 
REMARK    3  A    between atoms: C02_8  and  C03_9 
REMARK    4  A    between atoms: C02_8  and  N10_23 
REMARK    5  A    between atoms: C18_18  and  N17_25 
ROOT
HETATM    1  C13   D T1201       3.563 -16.200  10.745  1.00 13.45    -0.016 A 
HETATM    2  C15   D T1201       4.275 -16.058   8.419  1.00 15.16     0.132 A 
HETATM    3  C11   D T1201       3.564 -18.136   9.261  1.00 14.53     0.127 A 
HETATM    4  C12   D T1201       3.310 -17.574  10.515  1.00 14.32     0.062 A 
HETATM    5  C14   D T1201       4.026 -15.446   9.641  1.00 15.48     0.063 A 
HETATM    6  N10   D T1201       3.370 -19.450   9.006  1.00 15.96    -0.366 N 
HETATM    7  N16   D T1201       4.043 -17.368   8.234  1.00 13.41    -0.214 NA
HETATM    8 1H10   D T1201       2.978 -20.054   9.738  1.00 19.16     0.161 HD
ENDROOT
BRANCH   6   9
HETATM    9  C02   D T1201       3.674 -20.108   7.743  1.00 14.28     0.112 C 
HETATM   10  C01   D T1201       4.876 -21.028   7.881  1.00 15.05     0.037 C 
BRANCH   9  11
HETATM   11  C03   D T1201       2.440 -20.930   7.197  1.00 12.81    -0.036 A 
HETATM   12  C04   D T1201       2.070 -22.183   7.758  1.00 14.87     0.012 A 
HETATM   13  C05   D T1201       1.005 -22.930   7.252  1.00 15.83     0.043 A 
HETATM   14  C06   D T1201       0.267 -22.446   6.134  1.00 15.79     0.116 A 
HETATM   15  C07   D T1201       0.626 -21.195   5.587  1.00 13.70     0.043 A 
HETATM   16  F09   D T1201      -0.748 -23.102   5.640  1.00 15.90    -0.206 F 
HETATM   17  C08   D T1201       1.677 -20.478   6.112  1.00 12.07     0.012 A 
ENDBRANCH   9  11
ENDBRANCH   6   9
BRANCH   1  18
HETATM   18  C24   D T1201       3.220 -15.566  12.022  1.00 16.85     0.011 A 
HETATM   19  C28   D T1201       2.817 -16.190  13.257  1.00 24.34     0.152 A 
HETATM   20  N27   D T1201       2.513 -15.267  14.186  1.00 26.13    -0.185 NA
HETATM   21  N26   D T1201       2.670 -14.057  13.623  1.00 20.67    -0.285 N 
HETATM   22  C25   D T1201       3.093 -14.192  12.306  1.00 19.70     0.125 A 
HETATM   23  C29   D T1201       2.412 -12.660  14.363  1.00 21.32     0.179 C 
ENDBRANCH   1  18
BRANCH   2  24
HETATM   24  N17   D T1201       4.740 -15.274   7.388  1.00 13.89    -0.324 N 
HETATM   25 1H17   D T1201       5.695 -14.880   7.512  1.00 16.67     0.169 HD
BRANCH  24  26
HETATM   26  C18   D T1201       4.139 -14.926   6.216  1.00 12.52     0.146 A 
HETATM   27  C23   D T1201       4.437 -13.737   5.461  1.00 13.01     0.166 A 
HETATM   28  N22   D T1201       3.813 -13.461   4.306  1.00 12.07    -0.268 NA
HETATM   29  C21   D T1201       2.859 -14.317   3.874  1.00 13.05     0.135 A 
HETATM   30  C20   D T1201       2.591 -15.483   4.605  1.00 11.83     0.138 A 
HETATM   31  N19   D T1201       3.207 -15.763   5.744  1.00 12.49    -0.240 NA
ENDBRANCH  24  26
ENDBRANCH   2  24
TORSDOF 5
ENDMDL
MODEL 8
REMARK VINA RESULT:    -6.829      3.472      8.453
REMARK INTER + INTRA:          -9.133
REMARK INTER:                  -9.031
REMARK INTRA:                  -0.102
REMARK UNBOUND:                -0.308
REMARK  5 active torsions:
REMARK  status: ('A' for Active; 'I' for Inactive)
REMARK    1  A    between atoms: C13_1  and  C24_5 
REMARK    2  A    between atoms: C15_2  and  N17_25 
REMARK    3  A    between atoms: C02_8  and  C03_9 
REMARK    4  A    between atoms: C02_8  and  N10_23 
REMARK    5  A    between atoms: C18_18  and  N17_25 
ROOT
HETATM    1  C13   D T1201       3.150 -14.556   9.048  1.00 13.45    -0.016 A 
HETATM    2  C15   D T1201       2.556 -16.618   7.894  1.00 15.16     0.132 A 
HETATM    3  C11   D T1201       3.418 -14.826   6.638  1.00 14.53     0.127 A 
HETATM    4  C12   D T1201       3.547 -14.044   7.790  1.00 14.32     0.062 A 
HETATM    5  C14   D T1201       2.678 -15.889   9.070  1.00 15.48     0.063 A 
HETATM    6  N10   D T1201       3.753 -14.365   5.411  1.00 15.96    -0.366 N 
HETATM    7  N16   D T1201       2.924 -16.100   6.709  1.00 13.41    -0.214 NA
HETATM    8 1H10   D T1201       4.160 -13.427   5.318  1.00 19.16     0.161 HD
ENDROOT
BRANCH   6   9
HETATM    9  C02   D T1201       3.583 -15.105   4.168  1.00 14.28     0.112 C 
HETATM   10  C01   D T1201       2.218 -15.770   4.110  1.00 15.05     0.037 C 
BRANCH   9  11
HETATM   11  C03   D T1201       3.772 -14.177   2.903  1.00 12.81    -0.036 A 
HETATM   12  C04   D T1201       3.323 -12.829   2.891  1.00 14.87     0.012 A 
HETATM   13  C05   D T1201       3.453 -12.020   1.761  1.00 15.83     0.043 A 
HETATM   14  C06   D T1201       4.035 -12.548   0.574  1.00 15.79     0.116 A 
HETATM   15  C07   D T1201       4.495 -13.883   0.592  1.00 13.70     0.043 A 
HETATM   16  F09   D T1201       4.194 -11.822  -0.500  1.00 15.90    -0.206 F 
HETATM   17  C08   D T1201       4.359 -14.655   1.723  1.00 12.07     0.012 A 
ENDBRANCH   9  11
ENDBRANCH   6   9
BRANCH   1  18
HETATM   18  C24   D T1201       3.360 -13.792  10.282  1.00 16.85     0.011 A 
HETATM   19  C28   D T1201       3.592 -14.285  11.616  1.00 24.34     0.152 A 
HETATM   20  N27   D T1201       3.663 -13.272  12.498  1.00 26.13    -0.185 NA
HETATM   21  N26   D T1201       3.465 -12.129  11.820  1.00 20.67    -0.285 N 
HETATM   22  C25   D T1201       3.272 -12.399  10.471  1.00 19.70     0.125 A 
HETATM   23  C29   D T1201       3.458 -10.666  12.470  1.00 21.32     0.179 C 
ENDBRANCH   1  18
BRANCH   2  24
HETATM   24  N17   D T1201       2.075 -17.905   7.978  1.00 13.89    -0.324 N 
HETATM   25 1H17   D T1201       1.115 -18.005   8.367  1.00 16.67     0.169 HD
BRANCH  24  26
HETATM   26  C18   D T1201       2.664 -19.082   7.630  1.00 12.52     0.146 A 
HETATM   27  C23   D T1201       2.139 -20.009   6.660  1.00 13.01     0.166 A 
HETATM   28  N22   D T1201       2.779 -21.148   6.357  1.00 12.07    -0.268 NA
HETATM   29  C21   D T1201       3.926 -21.432   7.014  1.00 13.05     0.135 A 
HETATM   30  C20   D T1201       4.440 -20.514   7.941  1.00 11.83     0.138 A 
HETATM   31  N19   D T1201       3.815 -19.385   8.241  1.00 12.49    -0.240 NA
ENDBRANCH  24  26
ENDBRANCH   2  24
TORSDOF 5
ENDMDL
MODEL 9
REMARK VINA RESULT:    -6.583      3.868      8.168
REMARK INTER + INTRA:          -8.815
REMARK INTER:                  -8.536
REMARK INTRA:                  -0.280
REMARK UNBOUND:                -0.308
REMARK  5 active torsions:
REMARK  status: ('A' for Active; 'I' for Inactive)
REMARK    1  A    between atoms: C13_1  and  C24_5 
REMARK    2  A    between atoms: C15_2  and  N17_25 
REMARK    3  A    between atoms: C02_8  and  C03_9 
REMARK    4  A    between atoms: C02_8  and  N10_23 
REMARK    5  A    between atoms: C18_18  and  N17_25 
ROOT
HETATM    1  C13   D T1201       3.145 -16.217   9.589  1.00 13.45    -0.016 A 
HETATM    2  C15   D T1201       3.236 -13.869   8.943  1.00 15.16     0.132 A 
HETATM    3  C11   D T1201       3.045 -15.501   7.260  1.00 14.53     0.127 A 
HETATM    4  C12   D T1201       3.034 -16.523   8.212  1.00 14.32     0.062 A 
HETATM    5  C14   D T1201       3.214 -14.846   9.931  1.00 15.48     0.063 A 
HETATM    6  N10   D T1201       2.975 -15.750   5.932  1.00 15.96    -0.366 N 
HETATM    7  N16   D T1201       3.146 -14.190   7.641  1.00 13.41    -0.214 NA
HETATM    8 1H10   D T1201       2.863 -16.717   5.605  1.00 19.16     0.161 HD
ENDROOT
BRANCH   6   9
HETATM    9  C02   D T1201       3.046 -14.736   4.889  1.00 14.28     0.112 C 
HETATM   10  C01   D T1201       4.486 -14.333   4.616  1.00 15.05     0.037 C 
BRANCH   9  11
HETATM   11  C03   D T1201       2.372 -15.226   3.547  1.00 12.81    -0.036 A 
HETATM   12  C04   D T1201       1.891 -16.555   3.395  1.00 14.87     0.012 A 
HETATM   13  C05   D T1201       1.331 -17.003   2.197  1.00 15.83     0.043 A 
HETATM   14  C06   D T1201       1.245 -16.121   1.081  1.00 15.79     0.116 A 
HETATM   15  C07   D T1201       1.709 -14.797   1.239  1.00 13.70     0.043 A 
HETATM   16  F09   D T1201       0.712 -16.491  -0.052  1.00 15.90    -0.206 F 
HETATM   17  C08   D T1201       2.251 -14.383   2.435  1.00 12.07     0.012 A 
ENDBRANCH   9  11
ENDBRANCH   6   9
BRANCH   1  18
HETATM   18  C24   D T1201       3.043 -17.262  10.614  1.00 16.85     0.011 A 
HETATM   19  C28   D T1201       2.323 -18.509  10.558  1.00 24.34     0.152 A 
HETATM   20  N27   D T1201       2.409 -19.168  11.727  1.00 26.13    -0.185 NA
HETATM   21  N26   D T1201       3.132 -18.409  12.568  1.00 20.67    -0.285 N 
HETATM   22  C25   D T1201       3.533 -17.239  11.934  1.00 19.70     0.125 A 
HETATM   23  C29   D T1201       3.485 -18.797  14.081  1.00 21.32     0.179 C 
ENDBRANCH   1  18
BRANCH   2  24
HETATM   24  N17   D T1201       3.321 -12.554   9.338  1.00 13.89    -0.324 N 
HETATM   25 1H17   D T1201       3.497 -11.863   8.581  1.00 16.67     0.169 HD
BRANCH  24  26
HETATM   26  C18   D T1201       3.210 -12.006  10.581  1.00 12.52     0.146 A 
HETATM   27  C23   D T1201       4.053 -10.956  11.094  1.00 13.01     0.166 A 
HETATM   28  N22   D T1201       3.881 -10.456  12.326  1.00 12.07    -0.268 NA
HETATM   29  C21   D T1201       2.909 -10.985  13.103  1.00 13.05     0.135 A 
HETATM   30  C20   D T1201       2.081 -11.992  12.587  1.00 11.83     0.138 A 
HETATM   31  N19   D T1201       2.242 -12.488  11.369  1.00 12.49    -0.240 NA
ENDBRANCH  24  26
ENDBRANCH   2  24
TORSDOF 5
ENDMDL
