MODEL 1
REMARK VINA RESULT:      -8.6      0.000      0.000
REMARK  5 active torsions:
REMARK  status: ('A' for Active; 'I' for Inactive)
REMARK    1  A    between atoms: C13_1  and  C24_5 
REMARK    2  A    between atoms: C15_2  and  N17_25 
REMARK    3  A    between atoms: C02_8  and  C03_9 
REMARK    4  A    between atoms: C02_8  and  N10_23 
REMARK    5  A    between atoms: C18_18  and  N17_25 
ROOT
HETATM    1  C13   D T1201       2.750 -17.571   7.995  1.00 13.45    -0.016 A 
HETATM    2  C15   D T1201       3.736 -15.596   6.964  1.00 15.16     0.132 A 
HETATM    3  C11   D T1201       3.133 -15.506   9.236  1.00 14.53     0.127 A 
HETATM    4  C12   D T1201       2.688 -16.831   9.200  1.00 14.32     0.062 A 
HETATM    5  C14   D T1201       3.322 -16.919   6.878  1.00 15.48     0.063 A 
HETATM    6  N10   D T1201       3.061 -14.751  10.356  1.00 15.96    -0.366 N 
HETATM    7  N16   D T1201       3.649 -14.911   8.117  1.00 13.41    -0.214 NA
HETATM    8 1H10   D T1201       2.713 -15.170  11.226  1.00 19.16     0.161 HD
ENDROOT
BRANCH   6   9
HETATM    9  C02   D T1201       3.447 -13.350  10.442  1.00 14.28     0.112 C 
HETATM   10  C01   D T1201       2.574 -12.486   9.546  1.00 15.05     0.037 C 
BRANCH   9  11
HETATM   11  C03   D T1201       3.375 -12.811  11.926  1.00 12.81    -0.036 A 
HETATM   12  C04   D T1201       3.759 -11.484  12.259  1.00 14.87     0.012 A 
HETATM   13  C05   D T1201       3.735 -11.018  13.574  1.00 15.83     0.043 A 
HETATM   14  C06   D T1201       3.331 -11.889  14.627  1.00 15.79     0.116 A 
HETATM   15  C07   D T1201       2.935 -13.203  14.294  1.00 13.70     0.043 A 
HETATM   16  F09   D T1201       3.274 -11.491  15.870  1.00 15.90    -0.206 F 
HETATM   17  C08   D T1201       2.964 -13.631  12.986  1.00 12.07     0.012 A 
ENDBRANCH   9  11
ENDBRANCH   6   9
BRANCH   1  18
HETATM   18  C24   D T1201       2.377 -18.989   7.952  1.00 16.85     0.011 A 
HETATM   19  C28   D T1201       2.016 -19.858   9.043  1.00 24.34     0.152 A 
HETATM   20  N27   D T1201       1.812 -21.115   8.611  1.00 26.13    -0.185 NA
HETATM   21  N26   D T1201       2.042 -21.131   7.288  1.00 20.67    -0.285 N 
HETATM   22  C25   D T1201       2.394 -19.861   6.846  1.00 19.70     0.125 A 
HETATM   23  C29   D T1201       1.924 -22.425   6.351  1.00 21.32     0.179 C 
ENDBRANCH   1  18
BRANCH   2  24
HETATM   24  N17   D T1201       4.269 -15.011   5.838  1.00 13.89    -0.324 N 
HETATM   25 1H17   D T1201       5.287 -14.798   5.876  1.00 16.67     0.169 HD
BRANCH  24  26
HETATM   26  C18   D T1201       3.667 -14.661   4.668  1.00 12.52     0.146 A 
HETATM   27  C23   D T1201       2.742 -15.491   3.939  1.00 13.01     0.166 A 
HETATM   28  N22   D T1201       2.177 -15.078   2.795  1.00 12.07    -0.268 NA
HETATM   29  C21   D T1201       2.521 -13.863   2.313  1.00 13.05     0.135 A 
HETATM   30  C20   D T1201       3.405 -13.054   3.041  1.00 11.83     0.138 A 
HETATM   31  N19   D T1201       3.964 -13.454   4.173  1.00 12.49    -0.240 NA
ENDBRANCH  24  26
ENDBRANCH   2  24
TORSDOF 5
ENDMDL
MODEL 2
REMARK VINA RESULT:      -8.4      3.063      5.716
REMARK  5 active torsions:
REMARK  status: ('A' for Active; 'I' for Inactive)
REMARK    1  A    between atoms: C13_1  and  C24_5 
REMARK    2  A    between atoms: C15_2  and  N17_25 
REMARK    3  A    between atoms: C02_8  and  C03_9 
REMARK    4  A    between atoms: C02_8  and  N10_23 
REMARK    5  A    between atoms: C18_18  and  N17_25 
ROOT
HETATM    1  C13   D T1201       2.381 -19.535   8.318  1.00 13.45    -0.016 A 
HETATM    2  C15   D T1201       3.114 -18.464  10.381  1.00 15.16     0.132 A 
HETATM    3  C11   D T1201       3.789 -17.542   8.325  1.00 14.53     0.127 A 
HETATM    4  C12   D T1201       3.087 -18.525   7.621  1.00 14.32     0.062 A 
HETATM    5  C14   D T1201       2.389 -19.454   9.730  1.00 15.48     0.063 A 
HETATM    6  N10   D T1201       4.505 -16.579   7.700  1.00 15.96    -0.366 N 
HETATM    7  N16   D T1201       3.791 -17.528   9.693  1.00 13.41    -0.214 NA
HETATM    8 1H10   D T1201       4.501 -16.533   6.674  1.00 19.16     0.161 HD
ENDROOT
BRANCH   6   9
HETATM    9  C02   D T1201       5.307 -15.568   8.374  1.00 14.28     0.112 C 
HETATM   10  C01   D T1201       6.231 -14.861   7.395  1.00 15.05     0.037 C 
BRANCH   9  11
HETATM   11  C03   D T1201       4.405 -14.500   9.112  1.00 12.81    -0.036 A 
HETATM   12  C04   D T1201       3.858 -13.382   8.426  1.00 14.87     0.012 A 
HETATM   13  C05   D T1201       3.094 -12.416   9.083  1.00 15.83     0.043 A 
HETATM   14  C06   D T1201       2.859 -12.531  10.484  1.00 15.79     0.116 A 
HETATM   15  C07   D T1201       3.390 -13.651  11.161  1.00 13.70     0.043 A 
HETATM   16  F09   D T1201       2.135 -11.662  11.136  1.00 15.90    -0.206 F 
HETATM   17  C08   D T1201       4.134 -14.590  10.484  1.00 12.07     0.012 A 
ENDBRANCH   9  11
ENDBRANCH   6   9
BRANCH   1  18
HETATM   18  C24   D T1201       1.563 -20.522   7.607  1.00 16.85     0.011 A 
HETATM   19  C28   D T1201       0.858 -21.660   8.141  1.00 24.34     0.152 A 
HETATM   20  N27   D T1201       0.279 -22.373   7.159  1.00 26.13    -0.185 NA
HETATM   21  N26   D T1201       0.584 -21.779   5.993  1.00 20.67    -0.285 N 
HETATM   22  C25   D T1201       1.367 -20.653   6.218  1.00 19.70     0.125 A 
HETATM   23  C29   D T1201       0.109 -22.290   4.551  1.00 21.32     0.179 C 
ENDBRANCH   1  18
BRANCH   2  24
HETATM   24  N17   D T1201       3.096 -18.448  11.757  1.00 13.89    -0.324 N 
HETATM   25 1H17   D T1201       2.980 -19.373  12.220  1.00 16.67     0.169 HD
BRANCH  24  26
HETATM   26  C18   D T1201       3.205 -17.400  12.619  1.00 12.52     0.146 A 
HETATM   27  C23   D T1201       2.101 -16.600  13.084  1.00 13.01     0.166 A 
HETATM   28  N22   D T1201       2.279 -15.586  13.944  1.00 12.07    -0.268 NA
HETATM   29  C21   D T1201       3.538 -15.303  14.348  1.00 13.05     0.135 A 
HETATM   30  C20   D T1201       4.603 -16.102  13.907  1.00 11.83     0.138 A 
HETATM   31  N19   D T1201       4.434 -17.107  13.061  1.00 12.49    -0.240 NA
ENDBRANCH  24  26
ENDBRANCH   2  24
TORSDOF 5
ENDMDL
MODEL 3
REMARK VINA RESULT:      -8.3      1.265      5.316
REMARK  5 active torsions:
REMARK  status: ('A' for Active; 'I' for Inactive)
REMARK    1  A    between atoms: C13_1  and  C24_5 
REMARK    2  A    between atoms: C15_2  and  N17_25 
REMARK    3  A    between atoms: C02_8  and  C03_9 
REMARK    4  A    between atoms: C02_8  and  N10_23 
REMARK    5  A    between atoms: C18_18  and  N17_25 
ROOT
HETATM    1  C13   D T1201       3.394 -15.461   6.379  1.00 13.45    -0.016 A 
HETATM    2  C15   D T1201       3.507 -17.423   7.820  1.00 15.16     0.132 A 
HETATM    3  C11   D T1201       3.188 -15.310   8.805  1.00 14.53     0.127 A 
HETATM    4  C12   D T1201       3.202 -14.692   7.551  1.00 14.32     0.062 A 
HETATM    5  C14   D T1201       3.513 -16.860   6.550  1.00 15.48     0.063 A 
HETATM    6  N10   D T1201       3.042 -14.611   9.953  1.00 15.96    -0.366 N 
HETATM    7  N16   D T1201       3.341 -16.666   8.918  1.00 13.41    -0.214 NA
HETATM    8 1H10   D T1201       2.889 -13.597   9.911  1.00 19.16     0.161 HD
ENDROOT
BRANCH   6   9
HETATM    9  C02   D T1201       3.082 -15.187  11.290  1.00 14.28     0.112 C 
HETATM   10  C01   D T1201       4.285 -16.102  11.456  1.00 15.05     0.037 C 
BRANCH   9  11
HETATM   11  C03   D T1201       3.110 -14.071  12.409  1.00 12.81    -0.036 A 
HETATM   12  C04   D T1201       3.570 -12.754  12.139  1.00 14.87     0.012 A 
HETATM   13  C05   D T1201       3.634 -11.778  13.134  1.00 15.83     0.043 A 
HETATM   14  C06   D T1201       3.245 -12.098  14.467  1.00 15.79     0.116 A 
HETATM   15  C07   D T1201       2.774 -13.402  14.731  1.00 13.70     0.043 A 
HETATM   16  F09   D T1201       3.271 -11.211  15.426  1.00 15.90    -0.206 F 
HETATM   17  C08   D T1201       2.717 -14.341  13.727  1.00 12.07     0.012 A 
ENDBRANCH   9  11
ENDBRANCH   6   9
BRANCH   1  18
HETATM   18  C24   D T1201       3.321 -14.850   5.047  1.00 16.85     0.011 A 
HETATM   19  C28   D T1201       3.916 -13.621   4.587  1.00 24.34     0.152 A 
HETATM   20  N27   D T1201       3.559 -13.359   3.317  1.00 26.13    -0.185 NA
HETATM   21  N26   D T1201       2.735 -14.341   2.916  1.00 20.67    -0.285 N 
HETATM   22  C25   D T1201       2.558 -15.267   3.938  1.00 19.70     0.125 A 
HETATM   23  C29   D T1201       2.057 -14.438   1.468  1.00 21.32     0.179 C 
ENDBRANCH   1  18
BRANCH   2  24
HETATM   24  N17   D T1201       3.644 -18.788   7.922  1.00 13.89    -0.324 N 
HETATM   25 1H17   D T1201       4.588 -19.130   8.194  1.00 16.67     0.169 HD
BRANCH  24  26
HETATM   26  C18   D T1201       2.728 -19.775   7.719  1.00 12.52     0.146 A 
HETATM   27  C23   D T1201       2.219 -20.172   6.431  1.00 13.01     0.166 A 
HETATM   28  N22   D T1201       1.324 -21.162   6.302  1.00 12.07    -0.268 NA
HETATM   29  C21   D T1201       0.874 -21.768   7.424  1.00 13.05     0.135 A 
HETATM   30  C20   D T1201       1.392 -21.390   8.671  1.00 11.83     0.138 A 
HETATM   31  N19   D T1201       2.279 -20.416   8.805  1.00 12.49    -0.240 NA
ENDBRANCH  24  26
ENDBRANCH   2  24
TORSDOF 5
ENDMDL
MODEL 4
REMARK VINA RESULT:      -8.0      3.331      8.507
REMARK  5 active torsions:
REMARK  status: ('A' for Active; 'I' for Inactive)
REMARK    1  A    between atoms: C13_1  and  C24_5 
REMARK    2  A    between atoms: C15_2  and  N17_25 
REMARK    3  A    between atoms: C02_8  and  C03_9 
REMARK    4  A    between atoms: C02_8  and  N10_23 
REMARK    5  A    between atoms: C18_18  and  N17_25 
ROOT
HETATM    1  C13   D T1201       3.562 -13.813  10.408  1.00 13.45    -0.016 A 
HETATM    2  C15   D T1201       3.892 -16.103   9.646  1.00 15.16     0.132 A 
HETATM    3  C11   D T1201       3.802 -14.379   8.048  1.00 14.53     0.127 A 
HETATM    4  C12   D T1201       3.627 -13.421   9.050  1.00 14.32     0.062 A 
HETATM    5  C14   D T1201       3.735 -15.190  10.680  1.00 15.48     0.063 A 
HETATM    6  N10   D T1201       3.835 -14.054   6.735  1.00 15.96    -0.366 N 
HETATM    7  N16   D T1201       3.932 -15.705   8.363  1.00 13.41    -0.214 NA
HETATM    8 1H10   D T1201       3.777 -13.067   6.458  1.00 19.16     0.161 HD
ENDROOT
BRANCH   6   9
HETATM    9  C02   D T1201       3.951 -15.010   5.643  1.00 14.28     0.112 C 
HETATM   10  C01   D T1201       3.199 -16.293   5.957  1.00 15.05     0.037 C 
BRANCH   9  11
HETATM   11  C03   D T1201       3.422 -14.409   4.280  1.00 12.81    -0.036 A 
HETATM   12  C04   D T1201       2.516 -15.124   3.451  1.00 14.87     0.012 A 
HETATM   13  C05   D T1201       2.078 -14.614   2.227  1.00 15.83     0.043 A 
HETATM   14  C06   D T1201       2.556 -13.350   1.775  1.00 15.79     0.116 A 
HETATM   15  C07   D T1201       3.445 -12.634   2.606  1.00 13.70     0.043 A 
HETATM   16  F09   D T1201       2.159 -12.825   0.646  1.00 15.90    -0.206 F 
HETATM   17  C08   D T1201       3.853 -13.161   3.810  1.00 12.07     0.012 A 
ENDBRANCH   9  11
ENDBRANCH   6   9
BRANCH   1  18
HETATM   18  C24   D T1201       3.472 -12.820  11.484  1.00 16.85     0.011 A 
HETATM   19  C28   D T1201       3.409 -11.384  11.381  1.00 24.34     0.152 A 
HETATM   20  N27   D T1201       3.409 -10.812  12.598  1.00 26.13    -0.185 NA
HETATM   21  N26   D T1201       3.494 -11.797  13.508  1.00 20.67    -0.285 N 
HETATM   22  C25   D T1201       3.540 -13.033  12.875  1.00 19.70     0.125 A 
HETATM   23  C29   D T1201       3.531 -11.580  15.095  1.00 21.32     0.179 C 
ENDBRANCH   1  18
BRANCH   2  24
HETATM   24  N17   D T1201       4.038 -17.432   9.974  1.00 13.89    -0.324 N 
HETATM   25 1H17   D T1201       4.661 -17.634  10.783  1.00 16.67     0.169 HD
BRANCH  24  26
HETATM   26  C18   D T1201       3.491 -18.538   9.398  1.00 12.52     0.146 A 
HETATM   27  C23   D T1201       2.184 -19.062   9.703  1.00 13.01     0.166 A 
HETATM   28  N22   D T1201       1.703 -20.152   9.089  1.00 12.07    -0.268 NA
HETATM   29  C21   D T1201       2.492 -20.782   8.188  1.00 13.05     0.135 A 
HETATM   30  C20   D T1201       3.754 -20.252   7.883  1.00 11.83     0.138 A 
HETATM   31  N19   D T1201       4.234 -19.172   8.483  1.00 12.49    -0.240 NA
ENDBRANCH  24  26
ENDBRANCH   2  24
TORSDOF 5
ENDMDL
MODEL 5
REMARK VINA RESULT:      -7.9      3.215      7.569
REMARK  5 active torsions:
REMARK  status: ('A' for Active; 'I' for Inactive)
REMARK    1  A    between atoms: C13_1  and  C24_5 
REMARK    2  A    between atoms: C15_2  and  N17_25 
REMARK    3  A    between atoms: C02_8  and  C03_9 
REMARK    4  A    between atoms: C02_8  and  N10_23 
REMARK    5  A    between atoms: C18_18  and  N17_25 
ROOT
HETATM    1  C13   D T1201       3.444 -14.953   9.131  1.00 13.45    -0.016 A 
HETATM    2  C15   D T1201       4.001 -15.561   6.838  1.00 15.16     0.132 A 
HETATM    3  C11   D T1201       3.297 -17.248   8.317  1.00 14.53     0.127 A 
HETATM    4  C12   D T1201       3.142 -16.319   9.349  1.00 14.32     0.062 A 
HETATM    5  C14   D T1201       3.850 -14.595   7.824  1.00 15.48     0.063 A 
HETATM    6  N10   D T1201       3.053 -18.568   8.491  1.00 15.96    -0.366 N 
HETATM    7  N16   D T1201       3.724 -16.854   7.078  1.00 13.41    -0.214 NA
HETATM    8 1H10   D T1201       2.697 -18.900   9.395  1.00 19.16     0.161 HD
ENDROOT
BRANCH   6   9
HETATM    9  C02   D T1201       3.255 -19.593   7.477  1.00 14.28     0.112 C 
HETATM   10  C01   D T1201       4.479 -20.438   7.791  1.00 15.05     0.037 C 
BRANCH   9  11
HETATM   11  C03   D T1201       1.991 -20.529   7.330  1.00 12.81    -0.036 A 
HETATM   12  C04   D T1201       1.515 -21.318   8.412  1.00 14.87     0.012 A 
HETATM   13  C05   D T1201       0.423 -22.177   8.273  1.00 15.83     0.043 A 
HETATM   14  C06   D T1201      -0.235 -22.289   7.015  1.00 15.79     0.116 A 
HETATM   15  C07   D T1201       0.229 -21.493   5.945  1.00 13.70     0.043 A 
HETATM   16  F09   D T1201      -1.272 -23.064   6.844  1.00 15.90    -0.206 F 
HETATM   17  C08   D T1201       1.305 -20.651   6.114  1.00 12.07     0.012 A 
ENDBRANCH   9  11
ENDBRANCH   6   9
BRANCH   1  18
HETATM   18  C24   D T1201       3.203 -13.944  10.167  1.00 16.85     0.011 A 
HETATM   19  C28   D T1201       3.229 -12.508  10.049  1.00 24.34     0.152 A 
HETATM   20  N27   D T1201       3.031 -11.922  11.242  1.00 26.13    -0.185 NA
HETATM   21  N26   D T1201       2.898 -12.898  12.156  1.00 20.67    -0.285 N 
HETATM   22  C25   D T1201       3.001 -14.143  11.547  1.00 19.70     0.125 A 
HETATM   23  C29   D T1201       2.650 -12.663  13.721  1.00 21.32     0.179 C 
ENDBRANCH   1  18
BRANCH   2  24
HETATM   24  N17   D T1201       4.415 -15.152   5.591  1.00 13.89    -0.324 N 
HETATM   25 1H17   D T1201       5.445 -15.113   5.444  1.00 16.67     0.169 HD
BRANCH  24  26
HETATM   26  C18   D T1201       3.681 -14.783   4.505  1.00 12.52     0.146 A 
HETATM   27  C23   D T1201       2.733 -15.630   3.827  1.00 13.01     0.166 A 
HETATM   28  N22   D T1201       2.035 -15.198   2.767  1.00 12.07    -0.268 NA
HETATM   29  C21   D T1201       2.264 -13.943   2.317  1.00 13.05     0.135 A 
HETATM   30  C20   D T1201       3.172 -13.119   2.997  1.00 11.83     0.138 A 
HETATM   31  N19   D T1201       3.862 -13.538   4.047  1.00 12.49    -0.240 NA
ENDBRANCH  24  26
ENDBRANCH   2  24
TORSDOF 5
ENDMDL
MODEL 6
REMARK VINA RESULT:      -7.7      3.560      7.492
REMARK  5 active torsions:
REMARK  status: ('A' for Active; 'I' for Inactive)
REMARK    1  A    between atoms: C13_1  and  C24_5 
REMARK    2  A    between atoms: C15_2  and  N17_25 
REMARK    3  A    between atoms: C02_8  and  C03_9 
REMARK    4  A    between atoms: C02_8  and  N10_23 
REMARK    5  A    between atoms: C18_18  and  N17_25 
ROOT
HETATM    1  C13   D T1201       3.000 -19.559   8.222  1.00 13.45    -0.016 A 
HETATM    2  C15   D T1201       3.991 -17.604   9.287  1.00 15.16     0.132 A 
HETATM    3  C11   D T1201       3.213 -17.417   7.075  1.00 14.53     0.127 A 
HETATM    4  C12   D T1201       2.798 -18.751   7.078  1.00 14.32     0.062 A 
HETATM    5  C14   D T1201       3.583 -18.931   9.347  1.00 15.48     0.063 A 
HETATM    6  N10   D T1201       3.072 -16.619   5.992  1.00 15.96    -0.366 N 
HETATM    7  N16   D T1201       3.803 -16.866   8.180  1.00 13.41    -0.214 NA
HETATM    8 1H10   D T1201       2.602 -16.983   5.155  1.00 19.16     0.161 HD
ENDROOT
BRANCH   6   9
HETATM    9  C02   D T1201       3.540 -15.242   5.905  1.00 14.28     0.112 C 
HETATM   10  C01   D T1201       5.027 -15.151   6.203  1.00 15.05     0.037 C 
BRANCH   9  11
HETATM   11  C03   D T1201       3.247 -14.612   4.486  1.00 12.81    -0.036 A 
HETATM   12  C04   D T1201       2.425 -15.271   3.531  1.00 14.87     0.012 A 
HETATM   13  C05   D T1201       2.197 -14.736   2.262  1.00 15.83     0.043 A 
HETATM   14  C06   D T1201       2.810 -13.504   1.892  1.00 15.79     0.116 A 
HETATM   15  C07   D T1201       3.613 -12.843   2.846  1.00 13.70     0.043 A 
HETATM   16  F09   D T1201       2.609 -12.957   0.722  1.00 15.90    -0.206 F 
HETATM   17  C08   D T1201       3.814 -13.393   4.092  1.00 12.07     0.012 A 
ENDBRANCH   9  11
ENDBRANCH   6   9
BRANCH   1  18
HETATM   18  C24   D T1201       2.491 -20.934   8.284  1.00 16.85     0.011 A 
HETATM   19  C28   D T1201       2.920 -22.086   7.534  1.00 24.34     0.152 A 
HETATM   20  N27   D T1201       2.158 -23.157   7.817  1.00 26.13    -0.185 NA
HETATM   21  N26   D T1201       1.226 -22.768   8.703  1.00 20.67    -0.285 N 
HETATM   22  C25   D T1201       1.387 -21.422   9.010  1.00 19.70     0.125 A 
HETATM   23  C29   D T1201       0.093 -23.718   9.321  1.00 21.32     0.179 C 
ENDBRANCH   1  18
BRANCH   2  24
HETATM   24  N17   D T1201       4.567 -17.055  10.409  1.00 13.89    -0.324 N 
HETATM   25 1H17   D T1201       5.601 -17.151  10.482  1.00 16.67     0.169 HD
BRANCH  24  26
HETATM   26  C18   D T1201       3.991 -16.397  11.454  1.00 12.52     0.146 A 
HETATM   27  C23   D T1201       3.661 -14.995  11.460  1.00 13.01     0.166 A 
HETATM   28  N22   D T1201       3.084 -14.413  12.521  1.00 12.07    -0.268 NA
HETATM   29  C21   D T1201       2.844 -15.170  13.616  1.00 13.05     0.135 A 
HETATM   30  C20   D T1201       3.149 -16.538  13.592  1.00 11.83     0.138 A 
HETATM   31  N19   D T1201       3.716 -17.121  12.545  1.00 12.49    -0.240 NA
ENDBRANCH  24  26
ENDBRANCH   2  24
TORSDOF 5
ENDMDL
MODEL 7
REMARK VINA RESULT:      -7.7      3.388      7.707
REMARK  5 active torsions:
REMARK  status: ('A' for Active; 'I' for Inactive)
REMARK    1  A    between atoms: C13_1  and  C24_5 
REMARK    2  A    between atoms: C15_2  and  N17_25 
REMARK    3  A    between atoms: C02_8  and  C03_9 
REMARK    4  A    between atoms: C02_8  and  N10_23 
REMARK    5  A    between atoms: C18_18  and  N17_25 
ROOT
HETATM    1  C13   D T1201       3.773 -16.206   9.471  1.00 13.45    -0.016 A 
HETATM    2  C15   D T1201       3.118 -16.782   7.196  1.00 15.16     0.132 A 
HETATM    3  C11   D T1201       3.975 -18.472   8.591  1.00 14.53     0.127 A 
HETATM    4  C12   D T1201       4.122 -17.566   9.645  1.00 14.32     0.062 A 
HETATM    5  C14   D T1201       3.231 -15.846   8.215  1.00 15.48     0.063 A 
HETATM    6  N10   D T1201       4.328 -19.773   8.701  1.00 15.96    -0.366 N 
HETATM    7  N16   D T1201       3.475 -18.064   7.383  1.00 13.41    -0.214 NA
HETATM    8 1H10   D T1201       4.674 -20.127   9.601  1.00 19.16     0.161 HD
ENDROOT
BRANCH   6   9
HETATM    9  C02   D T1201       4.259 -20.750   7.623  1.00 14.28     0.112 C 
HETATM   10  C01   D T1201       5.518 -21.600   7.574  1.00 15.05     0.037 C 
BRANCH   9  11
HETATM   11  C03   D T1201       2.994 -21.687   7.763  1.00 12.81    -0.036 A 
HETATM   12  C04   D T1201       1.766 -21.211   8.295  1.00 14.87     0.012 A 
HETATM   13  C05   D T1201       0.660 -22.047   8.457  1.00 15.83     0.043 A 
HETATM   14  C06   D T1201       0.753 -23.423   8.097  1.00 15.79     0.116 A 
HETATM   15  C07   D T1201       1.969 -23.891   7.553  1.00 13.70     0.043 A 
HETATM   16  F09   D T1201      -0.262 -24.237   8.213  1.00 15.90    -0.206 F 
HETATM   17  C08   D T1201       3.040 -23.041   7.401  1.00 12.07     0.012 A 
ENDBRANCH   9  11
ENDBRANCH   6   9
BRANCH   1  18
HETATM   18  C24   D T1201       3.831 -15.255  10.587  1.00 16.85     0.011 A 
HETATM   19  C28   D T1201       4.252 -15.487  11.945  1.00 24.34     0.152 A 
HETATM   20  N27   D T1201       4.092 -14.383  12.694  1.00 26.13    -0.185 NA
HETATM   21  N26   D T1201       3.560 -13.432  11.908  1.00 20.67    -0.285 N 
HETATM   22  C25   D T1201       3.379 -13.921  10.619  1.00 19.70     0.125 A 
HETATM   23  C29   D T1201       3.192 -11.947  12.382  1.00 21.32     0.179 C 
ENDBRANCH   1  18
BRANCH   2  24
HETATM   24  N17   D T1201       2.599 -16.367   5.991  1.00 13.89    -0.324 N 
HETATM   25 1H17   D T1201       1.785 -16.909   5.636  1.00 16.67     0.169 HD
BRANCH  24  26
HETATM   26  C18   D T1201       2.989 -15.346   5.178  1.00 12.52     0.146 A 
HETATM   27  C23   D T1201       3.875 -14.278   5.567  1.00 13.01     0.166 A 
HETATM   28  N22   D T1201       4.226 -13.308   4.710  1.00 12.07    -0.268 NA
HETATM   29  C21   D T1201       3.699 -13.331   3.465  1.00 13.05     0.135 A 
HETATM   30  C20   D T1201       2.856 -14.387   3.089  1.00 11.83     0.138 A 
HETATM   31  N19   D T1201       2.508 -15.350   3.929  1.00 12.49    -0.240 NA
ENDBRANCH  24  26
ENDBRANCH   2  24
TORSDOF 5
ENDMDL
MODEL 8
REMARK VINA RESULT:      -7.6      3.462      8.552
REMARK  5 active torsions:
REMARK  status: ('A' for Active; 'I' for Inactive)
REMARK    1  A    between atoms: C13_1  and  C24_5 
REMARK    2  A    between atoms: C15_2  and  N17_25 
REMARK    3  A    between atoms: C02_8  and  C03_9 
REMARK    4  A    between atoms: C02_8  and  N10_23 
REMARK    5  A    between atoms: C18_18  and  N17_25 
ROOT
HETATM    1  C13   D T1201       3.580 -14.811   8.805  1.00 13.45    -0.016 A 
HETATM    2  C15   D T1201       3.823 -16.879   7.540  1.00 15.16     0.132 A 
HETATM    3  C11   D T1201       3.568 -14.856   6.367  1.00 14.53     0.127 A 
HETATM    4  C12   D T1201       3.501 -14.137   7.563  1.00 14.32     0.062 A 
HETATM    5  C14   D T1201       3.778 -16.211   8.757  1.00 15.48     0.063 A 
HETATM    6  N10   D T1201       3.462 -14.258   5.158  1.00 15.96    -0.366 N 
HETATM    7  N16   D T1201       3.727 -16.215   6.375  1.00 13.41    -0.214 NA
HETATM    8 1H10   D T1201       3.378 -13.236   5.106  1.00 19.16     0.161 HD
ENDROOT
BRANCH   6   9
HETATM    9  C02   D T1201       3.460 -14.956   3.880  1.00 14.28     0.112 C 
HETATM   10  C01   D T1201       2.150 -15.695   3.663  1.00 15.05     0.037 C 
BRANCH   9  11
HETATM   11  C03   D T1201       3.715 -13.970   2.672  1.00 12.81    -0.036 A 
HETATM   12  C04   D T1201       3.081 -12.700   2.598  1.00 14.87     0.012 A 
HETATM   13  C05   D T1201       3.273 -11.843   1.513  1.00 15.83     0.043 A 
HETATM   14  C06   D T1201       4.113 -12.244   0.433  1.00 15.79     0.116 A 
HETATM   15  C07   D T1201       4.755 -13.499   0.516  1.00 13.70     0.043 A 
HETATM   16  F09   D T1201       4.337 -11.467  -0.593  1.00 15.90    -0.206 F 
HETATM   17  C08   D T1201       4.550 -14.319   1.602  1.00 12.07     0.012 A 
ENDBRANCH   9  11
ENDBRANCH   6   9
BRANCH   1  18
HETATM   18  C24   D T1201       3.606 -14.072  10.073  1.00 16.85     0.011 A 
HETATM   19  C28   D T1201       3.798 -14.581  11.407  1.00 24.34     0.152 A 
HETATM   20  N27   D T1201       3.681 -13.600  12.318  1.00 26.13    -0.185 NA
HETATM   21  N26   D T1201       3.396 -12.465  11.658  1.00 20.67    -0.285 N 
HETATM   22  C25   D T1201       3.335 -12.707  10.291  1.00 19.70     0.125 A 
HETATM   23  C29   D T1201       3.165 -11.037  12.345  1.00 21.32     0.179 C 
ENDBRANCH   1  18
BRANCH   2  24
HETATM   24  N17   D T1201       4.000 -18.243   7.559  1.00 13.89    -0.324 N 
HETATM   25 1H17   D T1201       4.981 -18.575   7.456  1.00 16.67     0.169 HD
BRANCH  24  26
HETATM   26  C18   D T1201       3.082 -19.241   7.690  1.00 12.52     0.146 A 
HETATM   27  C23   D T1201       2.646 -19.796   8.946  1.00 13.01     0.166 A 
HETATM   28  N22   D T1201       1.729 -20.773   9.003  1.00 12.07    -0.268 NA
HETATM   29  C21   D T1201       1.237 -21.258   7.841  1.00 13.05     0.135 A 
HETATM   30  C20   D T1201       1.651 -20.696   6.625  1.00 11.83     0.138 A 
HETATM   31  N19   D T1201       2.553 -19.728   6.562  1.00 12.49    -0.240 NA
ENDBRANCH  24  26
ENDBRANCH   2  24
TORSDOF 5
ENDMDL
MODEL 9
REMARK VINA RESULT:      -7.6      3.436      7.679
REMARK  5 active torsions:
REMARK  status: ('A' for Active; 'I' for Inactive)
REMARK    1  A    between atoms: C13_1  and  C24_5 
REMARK    2  A    between atoms: C15_2  and  N17_25 
REMARK    3  A    between atoms: C02_8  and  C03_9 
REMARK    4  A    between atoms: C02_8  and  N10_23 
REMARK    5  A    between atoms: C18_18  and  N17_25 
ROOT
HETATM    1  C13   D T1201       3.482 -15.910  10.761  1.00 13.45    -0.016 A 
HETATM    2  C15   D T1201       4.070 -15.738   8.403  1.00 15.16     0.132 A 
HETATM    3  C11   D T1201       3.443 -17.835   9.264  1.00 14.53     0.127 A 
HETATM    4  C12   D T1201       3.244 -17.286  10.534  1.00 14.32     0.062 A 
HETATM    5  C14   D T1201       3.872 -15.140   9.641  1.00 15.48     0.063 A 
HETATM    6  N10   D T1201       3.261 -19.151   9.009  1.00 15.96    -0.366 N 
HETATM    7  N16   D T1201       3.853 -17.051   8.220  1.00 13.41    -0.214 NA
HETATM    8 1H10   D T1201       2.920 -19.767   9.756  1.00 19.16     0.161 HD
ENDROOT
BRANCH   6   9
HETATM    9  C02   D T1201       3.512 -19.794   7.727  1.00 14.28     0.112 C 
HETATM   10  C01   D T1201       4.652 -20.795   7.832  1.00 15.05     0.037 C 
BRANCH   9  11
HETATM   11  C03   D T1201       2.223 -20.519   7.172  1.00 12.81    -0.036 A 
HETATM   12  C04   D T1201       1.401 -21.325   8.006  1.00 14.87     0.012 A 
HETATM   13  C05   D T1201       0.284 -21.999   7.509  1.00 15.83     0.043 A 
HETATM   14  C06   D T1201      -0.047 -21.900   6.127  1.00 15.79     0.116 A 
HETATM   15  C07   D T1201       0.761 -21.087   5.303  1.00 13.70     0.043 A 
HETATM   16  F09   D T1201      -1.093 -22.497   5.623  1.00 15.90    -0.206 F 
HETATM   17  C08   D T1201       1.853 -20.429   5.823  1.00 12.07     0.012 A 
ENDBRANCH   9  11
ENDBRANCH   6   9
BRANCH   1  18
HETATM   18  C24   D T1201       3.192 -15.291  12.060  1.00 16.85     0.011 A 
HETATM   19  C28   D T1201       2.821 -15.928  13.297  1.00 24.34     0.152 A 
HETATM   20  N27   D T1201       2.564 -15.016  14.251  1.00 26.13    -0.185 NA
HETATM   21  N26   D T1201       2.723 -13.800  13.702  1.00 20.67    -0.285 N 
HETATM   22  C25   D T1201       3.099 -13.920  12.370  1.00 19.70     0.125 A 
HETATM   23  C29   D T1201       2.514 -12.411  14.472  1.00 21.32     0.179 C 
ENDBRANCH   1  18
BRANCH   2  24
HETATM   24  N17   D T1201       4.466 -14.938   7.356  1.00 13.89    -0.324 N 
HETATM   25 1H17   D T1201       5.306 -14.348   7.527  1.00 16.67     0.169 HD
BRANCH  24  26
HETATM   26  C18   D T1201       3.925 -14.794   6.114  1.00 12.52     0.146 A 
HETATM   27  C23   D T1201       2.969 -15.696   5.524  1.00 13.01     0.166 A 
HETATM   28  N22   D T1201       2.468 -15.488   4.298  1.00 12.07    -0.268 NA
HETATM   29  C21   D T1201       2.908 -14.416   3.600  1.00 13.05     0.135 A 
HETATM   30  C20   D T1201       3.821 -13.531   4.192  1.00 11.83     0.138 A 
HETATM   31  N19   D T1201       4.317 -13.729   5.404  1.00 12.49    -0.240 NA
ENDBRANCH  24  26
ENDBRANCH   2  24
TORSDOF 5
ENDMDL
