MODEL 1
REMARK VINA RESULT:    -8.344      0.000      0.000
REMARK INTER + INTRA:         -11.679
REMARK INTER:                 -10.783
REMARK INTRA:                  -0.896
REMARK UNBOUND:                -0.896
REMARK  5 active torsions:
REMARK  status: ('A' for Active; 'I' for Inactive)
REMARK    1  A    between atoms: C8_4  and  N5_32 
REMARK    2  A    between atoms: C10_6  and  O31_11 
REMARK    3  A    between atoms: C19_10  and  C21_16 
REMARK    4  A    between atoms: C11_13  and  N14_26 
REMARK    5  A    between atoms: C15_15  and  N14_26 
ROOT
HETATM    1  C17   D T 501     -22.708 -26.498   1.713  1.00 40.83     0.120 A 
HETATM    2  C18   D T 501     -21.525 -25.982   1.196  1.00 36.91     0.041 A 
HETATM    3  C19   D T 501     -20.406 -26.795   1.280  1.00 32.67     0.103 A 
HETATM    4  C15   D T 501     -21.658 -28.421   2.310  1.00 35.44     0.750 A 
HETATM    5  N16   D T 501     -22.800 -27.716   2.284  1.00 32.69    -0.058 NA
HETATM    6  N20   D T 501     -20.444 -28.010   1.844  1.00 30.98    -0.059 NA
ENDROOT
BRANCH   4   7
HETATM    7  N14   D T 501     -21.569 -29.577   2.990  1.00 32.94    -0.057 NA
BRANCH   7   8
HETATM    8  C11   D T 501     -22.140 -30.081   4.162  1.00 30.33     0.122 A 
HETATM    9  C10   D T 501     -22.620 -31.385   4.108  1.00 42.36     0.114 A 
HETATM   10  C9    D T 501     -23.291 -31.939   5.179  1.00 32.54     0.043 A 
HETATM   11  C8    D T 501     -23.479 -31.194   6.346  1.00 36.74     0.058 A 
HETATM   12  C13   D T 501     -22.978 -29.882   6.408  1.00 33.13     0.019 A 
HETATM   13  C12   D T 501     -22.306 -29.326   5.331  1.00 32.95     0.023 A 
BRANCH   9  14
HETATM   14  O31   D T 501     -22.419 -32.021   2.913  1.00 39.47    -0.327 OA
HETATM   15  C32   D T 501     -22.761 -33.422   2.849  1.00 35.80     0.181 C 
ENDBRANCH   9  14
BRANCH  11  16
HETATM   16  N5    D T 501     -24.156 -31.724   7.402  1.00 36.23    -0.344 N 
HETATM   17  C6    D T 501     -23.710 -33.040   7.877  1.00 36.45     0.137 C 
HETATM   18  C7    D T 501     -24.760 -33.661   8.805  1.00 37.09     0.274 C 
HETATM   19  N2    D T 501     -25.061 -32.738   9.936  1.00 41.14     0.143 N 
HETATM   20  C3    D T 501     -25.555 -31.433   9.411  1.00 42.05     0.274 C 
HETATM   21  C1    D T 501     -26.032 -33.340  10.890  1.00 43.53     0.286 C 
HETATM   22  C4    D T 501     -24.521 -30.804   8.488  1.00 39.69     0.137 C 
ENDBRANCH  11  16
ENDBRANCH   7   8
ENDBRANCH   4   7
BRANCH   3  23
HETATM   23  C21   D T 501     -19.121 -26.461   0.614  1.00 32.17     0.037 A 
HETATM   24  C22   D T 501     -18.845 -26.585  -0.708  1.00 27.11     0.078 A 
HETATM   25  N23   D T 501     -17.597 -26.093  -1.000  1.00 32.26    -0.323 N 
HETATM   26  C30   D T 501     -17.013 -25.995  -2.327  1.00 31.34     0.131 C 
HETATM   27  C24   D T 501     -17.025 -25.626   0.164  1.00 35.93     0.080 A 
HETATM   28  C25   D T 501     -17.938 -25.834   1.206  1.00 30.14     0.022 A 
HETATM   29  C29   D T 501     -15.823 -24.972   0.403  1.00 35.24     0.116 A 
HETATM   30  C26   D T 501     -17.609 -25.380   2.480  1.00 31.67     0.022 A 
HETATM   31  C27   D T 501     -16.390 -24.741   2.629  1.00 34.54     0.099 A 
HETATM   32  N28   D T 501     -15.513 -24.533   1.630  1.00 34.98    -0.241 NA
ENDBRANCH   3  23
TORSDOF 5
ENDMDL
MODEL 2
REMARK VINA RESULT:    -8.176      5.996      8.415
REMARK INTER + INTRA:         -11.462
REMARK INTER:                 -10.840
REMARK INTRA:                  -0.621
REMARK UNBOUND:                -0.896
REMARK  5 active torsions:
REMARK  status: ('A' for Active; 'I' for Inactive)
REMARK    1  A    between atoms: C8_4  and  N5_32 
REMARK    2  A    between atoms: C10_6  and  O31_11 
REMARK    3  A    between atoms: C19_10  and  C21_16 
REMARK    4  A    between atoms: C11_13  and  N14_26 
REMARK    5  A    between atoms: C15_15  and  N14_26 
ROOT
HETATM    1  C17   D T 501     -17.603 -25.889  -3.742  1.00 40.83     0.120 A 
HETATM    2  C18   D T 501     -17.295 -25.204  -2.571  1.00 36.91     0.041 A 
HETATM    3  C19   D T 501     -17.505 -25.884  -1.382  1.00 32.67     0.103 A 
HETATM    4  C15   D T 501     -18.255 -27.710  -2.554  1.00 35.44     0.750 A 
HETATM    5  N16   D T 501     -18.093 -27.145  -3.760  1.00 32.69    -0.058 NA
HETATM    6  N20   D T 501     -17.996 -27.131  -1.347  1.00 30.98    -0.059 NA
ENDROOT
BRANCH   4   7
HETATM    7  N14   D T 501     -18.884 -28.891  -2.417  1.00 32.94    -0.057 NA
BRANCH   7   8
HETATM    8  C11   D T 501     -20.066 -29.445  -2.916  1.00 30.33     0.122 A 
HETATM    9  C10   D T 501     -21.249 -29.032  -2.311  1.00 42.36     0.114 A 
HETATM   10  C9    D T 501     -22.459 -29.595  -2.661  1.00 32.54     0.043 A 
HETATM   11  C8    D T 501     -22.511 -30.579  -3.651  1.00 36.74     0.058 A 
HETATM   12  C13   D T 501     -21.317 -30.984  -4.275  1.00 33.13     0.019 A 
HETATM   13  C12   D T 501     -20.102 -30.420  -3.922  1.00 32.95     0.023 A 
BRANCH   9  14
HETATM   14  O31   D T 501     -21.093 -28.089  -1.331  1.00 39.47    -0.327 OA
HETATM   15  C32   D T 501     -21.337 -28.508   0.028  1.00 35.80     0.181 C 
ENDBRANCH   9  14
BRANCH  11  16
HETATM   16  N5    D T 501     -23.696 -31.155  -3.991  1.00 36.23    -0.344 N 
HETATM   17  C6    D T 501     -24.610 -30.347  -4.809  1.00 36.45     0.137 C 
HETATM   18  C7    D T 501     -26.014 -30.959  -4.811  1.00 37.09     0.274 C 
HETATM   19  N2    D T 501     -25.961 -32.373  -5.278  1.00 41.14     0.143 N 
HETATM   20  C3    D T 501     -25.061 -33.168  -4.394  1.00 42.05     0.274 C 
HETATM   21  C1    D T 501     -27.319 -32.978  -5.352  1.00 43.53     0.286 C 
HETATM   22  C4    D T 501     -23.661 -32.571  -4.382  1.00 39.69     0.137 C 
ENDBRANCH  11  16
ENDBRANCH   7   8
ENDBRANCH   4   7
BRANCH   3  23
HETATM   23  C21   D T 501     -17.056 -25.357  -0.068  1.00 32.17     0.037 A 
HETATM   24  C22   D T 501     -16.066 -24.453   0.139  1.00 27.11     0.078 A 
HETATM   25  N23   D T 501     -15.979 -24.112   1.466  1.00 32.26    -0.323 N 
HETATM   26  C30   D T 501     -15.086 -23.114   2.029  1.00 31.34     0.131 C 
HETATM   27  C24   D T 501     -16.941 -24.811   2.164  1.00 35.93     0.080 A 
HETATM   28  C25   D T 501     -17.643 -25.608   1.249  1.00 30.14     0.022 A 
HETATM   29  C29   D T 501     -17.321 -24.775   3.500  1.00 35.24     0.116 A 
HETATM   30  C26   D T 501     -18.717 -26.363   1.711  1.00 31.67     0.022 A 
HETATM   31  C27   D T 501     -19.025 -26.269   3.057  1.00 34.54     0.099 A 
HETATM   32  N28   D T 501     -18.358 -25.500   3.938  1.00 34.98    -0.241 NA
ENDBRANCH   3  23
TORSDOF 5
ENDMDL
MODEL 3
REMARK VINA RESULT:    -7.520      6.233      8.907
REMARK INTER + INTRA:         -10.614
REMARK INTER:                  -9.980
REMARK INTRA:                  -0.634
REMARK UNBOUND:                -0.896
REMARK  5 active torsions:
REMARK  status: ('A' for Active; 'I' for Inactive)
REMARK    1  A    between atoms: C8_4  and  N5_32 
REMARK    2  A    between atoms: C10_6  and  O31_11 
REMARK    3  A    between atoms: C19_10  and  C21_16 
REMARK    4  A    between atoms: C11_13  and  N14_26 
REMARK    5  A    between atoms: C15_15  and  N14_26 
ROOT
HETATM    1  C17   D T 501     -18.566 -28.143  -3.294  1.00 40.83     0.120 A 
HETATM    2  C18   D T 501     -18.113 -27.299  -2.286  1.00 36.91     0.041 A 
HETATM    3  C19   D T 501     -18.897 -27.221  -1.146  1.00 32.67     0.103 A 
HETATM    4  C15   D T 501     -20.388 -28.706  -2.063  1.00 35.44     0.750 A 
HETATM    5  N16   D T 501     -19.708 -28.854  -3.210  1.00 32.69    -0.058 NA
HETATM    6  N20   D T 501     -20.044 -27.903  -1.017  1.00 30.98    -0.059 NA
ENDROOT
BRANCH   4   7
HETATM    7  N14   D T 501     -21.618 -29.227  -1.911  1.00 32.94    -0.057 NA
BRANCH   7   8
HETATM    8  C11   D T 501     -22.584 -29.751  -2.775  1.00 30.33     0.122 A 
HETATM    9  C10   D T 501     -22.669 -31.138  -2.845  1.00 42.36     0.114 A 
HETATM   10  C9    D T 501     -23.519 -31.752  -3.742  1.00 32.54     0.043 A 
HETATM   11  C8    D T 501     -24.325 -30.979  -4.582  1.00 36.74     0.058 A 
HETATM   12  C13   D T 501     -24.252 -29.577  -4.499  1.00 33.13     0.019 A 
HETATM   13  C12   D T 501     -23.397 -28.961  -3.599  1.00 32.95     0.023 A 
BRANCH   9  14
HETATM   14  O31   D T 501     -21.818 -31.807  -2.009  1.00 39.47    -0.327 OA
HETATM   15  C32   D T 501     -21.672 -33.227  -2.219  1.00 35.80     0.181 C 
ENDBRANCH   9  14
BRANCH  11  16
HETATM   16  N5    D T 501     -25.153 -31.574  -5.483  1.00 36.23    -0.344 N 
HETATM   17  C6    D T 501     -24.532 -32.503  -6.436  1.00 36.45     0.137 C 
HETATM   18  C7    D T 501     -25.491 -32.811  -7.591  1.00 37.09     0.274 C 
HETATM   19  N2    D T 501     -26.781 -33.341  -7.064  1.00 41.14     0.143 N 
HETATM   20  C3    D T 501     -27.400 -32.348  -6.140  1.00 42.05     0.274 C 
HETATM   21  C1    D T 501     -27.712 -33.709  -8.165  1.00 43.53     0.286 C 
HETATM   22  C4    D T 501     -26.458 -32.034  -4.987  1.00 39.69     0.137 C 
ENDBRANCH  11  16
ENDBRANCH   7   8
ENDBRANCH   4   7
BRANCH   3  23
HETATM   23  C21   D T 501     -18.458 -26.509   0.082  1.00 32.17     0.037 A 
HETATM   24  C22   D T 501     -18.948 -26.690   1.334  1.00 27.11     0.078 A 
HETATM   25  N23   D T 501     -18.248 -25.944   2.249  1.00 32.26    -0.323 N 
HETATM   26  C30   D T 501     -18.452 -25.958   3.688  1.00 31.34     0.131 C 
HETATM   27  C24   D T 501     -17.262 -25.245   1.587  1.00 35.93     0.080 A 
HETATM   28  C25   D T 501     -17.351 -25.563   0.225  1.00 30.14     0.022 A 
HETATM   29  C29   D T 501     -16.247 -24.418   2.051  1.00 35.24     0.116 A 
HETATM   30  C26   D T 501     -16.408 -25.025  -0.647  1.00 31.67     0.022 A 
HETATM   31  C27   D T 501     -15.433 -24.209  -0.100  1.00 34.54     0.099 A 
HETATM   32  N28   D T 501     -15.340 -23.906   1.208  1.00 34.98    -0.241 NA
ENDBRANCH   3  23
TORSDOF 5
ENDMDL
MODEL 4
REMARK VINA RESULT:    -7.386      5.758     10.282
REMARK INTER + INTRA:         -10.441
REMARK INTER:                  -9.503
REMARK INTRA:                  -0.938
REMARK UNBOUND:                -0.896
REMARK  5 active torsions:
REMARK  status: ('A' for Active; 'I' for Inactive)
REMARK    1  A    between atoms: C8_4  and  N5_32 
REMARK    2  A    between atoms: C10_6  and  O31_11 
REMARK    3  A    between atoms: C19_10  and  C21_16 
REMARK    4  A    between atoms: C11_13  and  N14_26 
REMARK    5  A    between atoms: C15_15  and  N14_26 
ROOT
HETATM    1  C17   D T 501     -23.107 -30.042  -4.008  1.00 40.83     0.120 A 
HETATM    2  C18   D T 501     -22.460 -31.109  -4.622  1.00 36.91     0.041 A 
HETATM    3  C19   D T 501     -21.413 -31.685  -3.920  1.00 32.67     0.103 A 
HETATM    4  C15   D T 501     -21.731 -30.189  -2.207  1.00 35.44     0.750 A 
HETATM    5  N16   D T 501     -22.755 -29.556  -2.800  1.00 32.69    -0.058 NA
HETATM    6  N20   D T 501     -21.021 -31.235  -2.720  1.00 30.98    -0.059 NA
ENDROOT
BRANCH   4   7
HETATM    7  N14   D T 501     -21.175 -29.711  -1.081  1.00 32.94    -0.057 NA
BRANCH   7   8
HETATM    8  C11   D T 501     -20.137 -28.821  -0.791  1.00 30.33     0.122 A 
HETATM    9  C10   D T 501     -19.981 -28.462   0.544  1.00 42.36     0.114 A 
HETATM   10  C9    D T 501     -19.052 -27.513   0.918  1.00 32.54     0.043 A 
HETATM   11  C8    D T 501     -18.238 -26.913  -0.046  1.00 36.74     0.058 A 
HETATM   12  C13   D T 501     -18.383 -27.290  -1.393  1.00 33.13     0.019 A 
HETATM   13  C12   D T 501     -19.317 -28.241  -1.769  1.00 32.95     0.023 A 
BRANCH   9  14
HETATM   14  O31   D T 501     -20.846 -29.076   1.408  1.00 39.47    -0.327 OA
HETATM   15  C32   D T 501     -21.368 -28.280   2.492  1.00 35.80     0.181 C 
ENDBRANCH   9  14
BRANCH  11  16
HETATM   16  N5    D T 501     -17.331 -25.963   0.310  1.00 36.23    -0.344 N 
HETATM   17  C6    D T 501     -17.093 -24.884  -0.657  1.00 36.45     0.137 C 
HETATM   18  C7    D T 501     -15.822 -24.109  -0.297  1.00 37.09     0.274 C 
HETATM   19  N2    D T 501     -15.910 -23.589   1.097  1.00 41.14     0.143 N 
HETATM   20  C3    D T 501     -16.103 -24.720   2.050  1.00 42.05     0.274 C 
HETATM   21  C1    D T 501     -14.716 -22.777   1.456  1.00 43.53     0.286 C 
HETATM   22  C4    D T 501     -17.365 -25.499   1.704  1.00 39.69     0.137 C 
ENDBRANCH  11  16
ENDBRANCH   7   8
ENDBRANCH   4   7
BRANCH   3  23
HETATM   23  C21   D T 501     -20.747 -32.938  -4.360  1.00 32.17     0.037 A 
HETATM   24  C22   D T 501     -20.734 -34.118  -3.690  1.00 27.11     0.078 A 
HETATM   25  N23   D T 501     -20.114 -35.096  -4.426  1.00 32.26    -0.323 N 
HETATM   26  C30   D T 501     -19.994 -36.494  -4.049  1.00 31.34     0.131 C 
HETATM   27  C24   D T 501     -19.701 -34.551  -5.623  1.00 35.93     0.080 A 
HETATM   28  C25   D T 501     -20.073 -33.199  -5.631  1.00 30.14     0.022 A 
HETATM   29  C29   D T 501     -19.101 -35.121  -6.739  1.00 35.24     0.116 A 
HETATM   30  C26   D T 501     -19.818 -32.446  -6.774  1.00 31.67     0.022 A 
HETATM   31  C27   D T 501     -19.215 -33.094  -7.838  1.00 34.54     0.099 A 
HETATM   32  N28   D T 501     -18.863 -34.393  -7.837  1.00 34.98    -0.241 NA
ENDBRANCH   3  23
TORSDOF 5
ENDMDL
MODEL 5
REMARK VINA RESULT:    -7.383      5.219     10.286
REMARK INTER + INTRA:         -10.437
REMARK INTER:                  -9.422
REMARK INTRA:                  -1.016
REMARK UNBOUND:                -0.896
REMARK  5 active torsions:
REMARK  status: ('A' for Active; 'I' for Inactive)
REMARK    1  A    between atoms: C8_4  and  N5_32 
REMARK    2  A    between atoms: C10_6  and  O31_11 
REMARK    3  A    between atoms: C19_10  and  C21_16 
REMARK    4  A    between atoms: C11_13  and  N14_26 
REMARK    5  A    between atoms: C15_15  and  N14_26 
ROOT
HETATM    1  C17   D T 501     -23.182 -30.188  -4.334  1.00 40.83     0.120 A 
HETATM    2  C18   D T 501     -22.560 -31.414  -4.540  1.00 36.91     0.041 A 
HETATM    3  C19   D T 501     -21.649 -31.815  -3.576  1.00 32.67     0.103 A 
HETATM    4  C15   D T 501     -22.034 -29.883  -2.399  1.00 35.44     0.750 A 
HETATM    5  N16   D T 501     -22.930 -29.397  -3.271  1.00 32.69    -0.058 NA
HETATM    6  N20   D T 501     -21.359 -31.063  -2.506  1.00 30.98    -0.059 NA
ENDROOT
BRANCH   4   7
HETATM    7  N14   D T 501     -21.571 -29.131  -1.385  1.00 32.94    -0.057 NA
BRANCH   7   8
HETATM    8  C11   D T 501     -20.429 -28.354  -1.171  1.00 30.33     0.122 A 
HETATM    9  C10   D T 501     -19.945 -28.307   0.132  1.00 42.36     0.114 A 
HETATM   10  C9    D T 501     -18.885 -27.489   0.465  1.00 32.54     0.043 A 
HETATM   11  C8    D T 501     -18.268 -26.710  -0.517  1.00 36.74     0.058 A 
HETATM   12  C13   D T 501     -18.745 -26.773  -1.838  1.00 33.13     0.019 A 
HETATM   13  C12   D T 501     -19.811 -27.592  -2.172  1.00 32.95     0.023 A 
BRANCH   9  14
HETATM   14  O31   D T 501     -20.635 -29.077   1.029  1.00 39.47    -0.327 OA
HETATM   15  C32   D T 501     -21.244 -28.397   2.147  1.00 35.80     0.181 C 
ENDBRANCH   9  14
BRANCH  11  16
HETATM   16  N5    D T 501     -17.233 -25.886  -0.196  1.00 36.23    -0.344 N 
HETATM   17  C6    D T 501     -16.713 -25.032  -1.272  1.00 36.45     0.137 C 
HETATM   18  C7    D T 501     -15.355 -24.441  -0.880  1.00 37.09     0.274 C 
HETATM   19  N2    D T 501     -15.465 -23.700   0.408  1.00 41.14     0.143 N 
HETATM   20  C3    D T 501     -15.950 -24.614   1.481  1.00 42.05     0.274 C 
HETATM   21  C1    D T 501     -14.176 -23.060   0.784  1.00 43.53     0.286 C 
HETATM   22  C4    D T 501     -17.300 -25.209   1.106  1.00 39.69     0.137 C 
ENDBRANCH  11  16
ENDBRANCH   7   8
ENDBRANCH   4   7
BRANCH   3  23
HETATM   23  C21   D T 501     -21.043 -33.172  -3.562  1.00 32.17     0.037 A 
HETATM   24  C22   D T 501     -20.162 -33.668  -4.467  1.00 27.11     0.078 A 
HETATM   25  N23   D T 501     -19.728 -34.916  -4.100  1.00 32.26    -0.323 N 
HETATM   26  C30   D T 501     -18.724 -35.704  -4.794  1.00 31.34     0.131 C 
HETATM   27  C24   D T 501     -20.338 -35.264  -2.913  1.00 35.93     0.080 A 
HETATM   28  C25   D T 501     -21.174 -34.204  -2.534  1.00 30.14     0.022 A 
HETATM   29  C29   D T 501     -20.189 -36.371  -2.088  1.00 35.24     0.116 A 
HETATM   30  C26   D T 501     -21.854 -34.294  -1.322  1.00 31.67     0.022 A 
HETATM   31  C27   D T 501     -21.649 -35.435  -0.564  1.00 34.54     0.099 A 
HETATM   32  N28   D T 501     -20.842 -36.450  -0.922  1.00 34.98    -0.241 NA
ENDBRANCH   3  23
TORSDOF 5
ENDMDL
MODEL 6
REMARK VINA RESULT:    -7.187      5.643     11.012
REMARK INTER + INTRA:         -10.184
REMARK INTER:                  -9.233
REMARK INTRA:                  -0.951
REMARK UNBOUND:                -0.896
REMARK  5 active torsions:
REMARK  status: ('A' for Active; 'I' for Inactive)
REMARK    1  A    between atoms: C8_4  and  N5_32 
REMARK    2  A    between atoms: C10_6  and  O31_11 
REMARK    3  A    between atoms: C19_10  and  C21_16 
REMARK    4  A    between atoms: C11_13  and  N14_26 
REMARK    5  A    between atoms: C15_15  and  N14_26 
ROOT
HETATM    1  C17   D T 501     -20.517 -32.171  -4.232  1.00 40.83     0.120 A 
HETATM    2  C18   D T 501     -21.639 -32.855  -3.777  1.00 36.91     0.041 A 
HETATM    3  C19   D T 501     -22.568 -32.116  -3.063  1.00 32.67     0.103 A 
HETATM    4  C15   D T 501     -21.266 -30.240  -3.302  1.00 35.44     0.750 A 
HETATM    5  N16   D T 501     -20.303 -30.860  -4.001  1.00 32.69    -0.058 NA
HETATM    6  N20   D T 501     -22.398 -30.812  -2.801  1.00 30.98    -0.059 NA
ENDROOT
BRANCH   4   7
HETATM    7  N14   D T 501     -21.106 -28.979  -2.863  1.00 32.94    -0.057 NA
BRANCH   7   8
HETATM    8  C11   D T 501     -20.055 -28.258  -2.290  1.00 30.33     0.122 A 
HETATM    9  C10   D T 501     -20.223 -27.859  -0.968  1.00 42.36     0.114 A 
HETATM   10  C9    D T 501     -19.289 -27.058  -0.345  1.00 32.54     0.043 A 
HETATM   11  C8    D T 501     -18.145 -26.652  -1.035  1.00 36.74     0.058 A 
HETATM   12  C13   D T 501     -17.965 -27.070  -2.366  1.00 33.13     0.019 A 
HETATM   13  C12   D T 501     -18.904 -27.874  -2.992  1.00 32.95     0.023 A 
BRANCH   9  14
HETATM   14  O31   D T 501     -21.390 -28.277  -0.387  1.00 39.47    -0.327 OA
HETATM   15  C32   D T 501     -21.646 -27.837   0.963  1.00 35.80     0.181 C 
ENDBRANCH   9  14
BRANCH  11  16
HETATM   16  N5    D T 501     -17.226 -25.846  -0.436  1.00 36.23    -0.344 N 
HETATM   17  C6    D T 501     -16.701 -24.734  -1.240  1.00 36.45     0.137 C 
HETATM   18  C7    D T 501     -15.445 -24.146  -0.590  1.00 37.09     0.274 C 
HETATM   19  N2    D T 501     -15.736 -23.725   0.810  1.00 41.14     0.143 N 
HETATM   20  C3    D T 501     -16.220 -24.892   1.602  1.00 42.05     0.274 C 
HETATM   21  C1    D T 501     -14.552 -23.091   1.450  1.00 43.53     0.286 C 
HETATM   22  C4    D T 501     -17.469 -25.487   0.967  1.00 39.69     0.137 C 
ENDBRANCH  11  16
ENDBRANCH   7   8
ENDBRANCH   4   7
BRANCH   3  23
HETATM   23  C21   D T 501     -23.894 -32.659  -2.670  1.00 32.17     0.037 A 
HETATM   24  C22   D T 501     -24.146 -33.487  -1.625  1.00 27.11     0.078 A 
HETATM   25  N23   D T 501     -25.492 -33.714  -1.490  1.00 32.26    -0.323 N 
HETATM   26  C30   D T 501     -26.120 -34.486  -0.431  1.00 31.34     0.131 C 
HETATM   27  C24   D T 501     -26.158 -33.016  -2.475  1.00 35.93     0.080 A 
HETATM   28  C25   D T 501     -25.202 -32.339  -3.243  1.00 30.14     0.022 A 
HETATM   29  C29   D T 501     -27.513 -32.847  -2.731  1.00 35.24     0.116 A 
HETATM   30  C26   D T 501     -25.640 -31.506  -4.269  1.00 31.67     0.022 A 
HETATM   31  C27   D T 501     -27.008 -31.398  -4.455  1.00 34.54     0.099 A 
HETATM   32  N28   D T 501     -27.929 -32.041  -3.716  1.00 34.98    -0.241 NA
ENDBRANCH   3  23
TORSDOF 5
ENDMDL
MODEL 7
REMARK VINA RESULT:    -6.864      2.104     10.387
REMARK INTER + INTRA:          -9.766
REMARK INTER:                  -8.727
REMARK INTRA:                  -1.039
REMARK UNBOUND:                -0.896
REMARK  5 active torsions:
REMARK  status: ('A' for Active; 'I' for Inactive)
REMARK    1  A    between atoms: C8_4  and  N5_32 
REMARK    2  A    between atoms: C10_6  and  O31_11 
REMARK    3  A    between atoms: C19_10  and  C21_16 
REMARK    4  A    between atoms: C11_13  and  N14_26 
REMARK    5  A    between atoms: C15_15  and  N14_26 
ROOT
HETATM    1  C17   D T 501     -22.223 -31.655   3.505  1.00 40.83     0.120 A 
HETATM    2  C18   D T 501     -22.852 -31.734   4.743  1.00 36.91     0.041 A 
HETATM    3  C19   D T 501     -23.293 -30.540   5.291  1.00 32.67     0.103 A 
HETATM    4  C15   D T 501     -22.493 -29.400   3.465  1.00 35.44     0.750 A 
HETATM    5  N16   D T 501     -22.024 -30.495   2.847  1.00 32.69    -0.058 NA
HETATM    6  N20   D T 501     -23.113 -29.361   4.679  1.00 30.98    -0.059 NA
ENDROOT
BRANCH   4   7
HETATM    7  N14   D T 501     -22.220 -28.168   3.002  1.00 32.94    -0.057 NA
BRANCH   7   8
HETATM    8  C11   D T 501     -21.055 -27.473   2.666  1.00 30.33     0.122 A 
HETATM    9  C10   D T 501     -20.760 -27.372   1.311  1.00 42.36     0.114 A 
HETATM   10  C9    D T 501     -19.582 -26.795   0.883  1.00 32.54     0.043 A 
HETATM   11  C8    D T 501     -18.676 -26.283   1.814  1.00 36.74     0.058 A 
HETATM   12  C13   D T 501     -18.983 -26.368   3.184  1.00 33.13     0.019 A 
HETATM   13  C12   D T 501     -20.165 -26.949   3.614  1.00 32.95     0.023 A 
BRANCH   9  14
HETATM   14  O31   D T 501     -21.690 -27.933   0.479  1.00 39.47    -0.327 OA
HETATM   15  C32   D T 501     -21.230 -28.962  -0.422  1.00 35.80     0.181 C 
ENDBRANCH   9  14
BRANCH  11  16
HETATM   16  N5    D T 501     -17.503 -25.728   1.404  1.00 36.23    -0.344 N 
HETATM   17  C6    D T 501     -17.539 -24.961   0.152  1.00 36.45     0.137 C 
HETATM   18  C7    D T 501     -16.119 -24.709  -0.365  1.00 37.09     0.274 C 
HETATM   19  N2    D T 501     -15.303 -24.024   0.677  1.00 41.14     0.143 N 
HETATM   20  C3    D T 501     -15.253 -24.857   1.913  1.00 42.05     0.274 C 
HETATM   21  C1    D T 501     -13.935 -23.708   0.183  1.00 43.53     0.286 C 
HETATM   22  C4    D T 501     -16.658 -25.115   2.439  1.00 39.69     0.137 C 
ENDBRANCH  11  16
ENDBRANCH   7   8
ENDBRANCH   4   7
BRANCH   3  23
HETATM   23  C21   D T 501     -24.138 -30.482   6.512  1.00 32.17     0.037 A 
HETATM   24  C22   D T 501     -23.699 -30.522   7.795  1.00 27.11     0.078 A 
HETATM   25  N23   D T 501     -24.736 -30.346   8.676  1.00 32.26    -0.323 N 
HETATM   26  C30   D T 501     -24.615 -30.253  10.121  1.00 31.34     0.131 C 
HETATM   27  C24   D T 501     -25.902 -30.184   7.959  1.00 35.93     0.080 A 
HETATM   28  C25   D T 501     -25.582 -30.262   6.596  1.00 30.14     0.022 A 
HETATM   29  C29   D T 501     -27.201 -29.903   8.360  1.00 35.24     0.116 A 
HETATM   30  C26   D T 501     -26.595 -30.062   5.662  1.00 31.67     0.022 A 
HETATM   31  C27   D T 501     -27.861 -29.789   6.151  1.00 34.54     0.099 A 
HETATM   32  N28   D T 501     -28.171 -29.706   7.457  1.00 34.98    -0.241 NA
ENDBRANCH   3  23
TORSDOF 5
ENDMDL
MODEL 8
REMARK VINA RESULT:    -6.793      6.164     11.339
REMARK INTER + INTRA:          -9.674
REMARK INTER:                  -8.726
REMARK INTRA:                  -0.947
REMARK UNBOUND:                -0.896
REMARK  5 active torsions:
REMARK  status: ('A' for Active; 'I' for Inactive)
REMARK    1  A    between atoms: C8_4  and  N5_32 
REMARK    2  A    between atoms: C10_6  and  O31_11 
REMARK    3  A    between atoms: C19_10  and  C21_16 
REMARK    4  A    between atoms: C11_13  and  N14_26 
REMARK    5  A    between atoms: C15_15  and  N14_26 
ROOT
HETATM    1  C17   D T 501     -21.793 -32.829  -2.328  1.00 40.83     0.120 A 
HETATM    2  C18   D T 501     -22.867 -33.082  -3.175  1.00 36.91     0.041 A 
HETATM    3  C19   D T 501     -23.423 -31.986  -3.814  1.00 32.67     0.103 A 
HETATM    4  C15   D T 501     -21.909 -30.606  -2.777  1.00 35.44     0.750 A 
HETATM    5  N16   D T 501     -21.298 -31.595  -2.106  1.00 32.69    -0.058 NA
HETATM    6  N20   D T 501     -22.971 -30.739  -3.621  1.00 30.98    -0.059 NA
ENDROOT
BRANCH   4   7
HETATM    7  N14   D T 501     -21.625 -29.316  -2.527  1.00 32.94    -0.057 NA
BRANCH   7   8
HETATM    8  C11   D T 501     -20.483 -28.613  -2.133  1.00 30.33     0.122 A 
HETATM    9  C10   D T 501     -20.523 -28.016  -0.878  1.00 42.36     0.114 A 
HETATM   10  C9    D T 501     -19.487 -27.217  -0.440  1.00 32.54     0.043 A 
HETATM   11  C8    D T 501     -18.369 -27.015  -1.252  1.00 36.74     0.058 A 
HETATM   12  C13   D T 501     -18.320 -27.633  -2.514  1.00 33.13     0.019 A 
HETATM   13  C12   D T 501     -19.361 -28.434  -2.955  1.00 32.95     0.023 A 
BRANCH   9  14
HETATM   14  O31   D T 501     -21.672 -28.244  -0.171  1.00 39.47    -0.327 OA
HETATM   15  C32   D T 501     -21.833 -27.526   1.070  1.00 35.80     0.181 C 
ENDBRANCH   9  14
BRANCH  11  16
HETATM   16  N5    D T 501     -17.350 -26.213  -0.838  1.00 36.23    -0.344 N 
HETATM   17  C6    D T 501     -16.680 -25.412  -1.870  1.00 36.45     0.137 C 
HETATM   18  C7    D T 501     -15.356 -24.851  -1.341  1.00 37.09     0.274 C 
HETATM   19  N2    D T 501     -15.588 -24.064  -0.097  1.00 41.14     0.143 N 
HETATM   20  C3    D T 501     -16.225 -24.926   0.939  1.00 42.05     0.274 C 
HETATM   21  C1    D T 501     -14.329 -23.452   0.407  1.00 43.53     0.286 C 
HETATM   22  C4    D T 501     -17.543 -25.490   0.427  1.00 39.69     0.137 C 
ENDBRANCH  11  16
ENDBRANCH   7   8
ENDBRANCH   4   7
BRANCH   3  23
HETATM   23  C21   D T 501     -24.450 -32.115  -4.879  1.00 32.17     0.037 A 
HETATM   24  C22   D T 501     -24.217 -32.350  -6.195  1.00 27.11     0.078 A 
HETATM   25  N23   D T 501     -25.394 -32.511  -6.883  1.00 32.26    -0.323 N 
HETATM   26  C30   D T 501     -25.513 -32.855  -8.290  1.00 31.34     0.131 C 
HETATM   27  C24   D T 501     -26.443 -32.380  -5.999  1.00 35.93     0.080 A 
HETATM   28  C25   D T 501     -25.905 -32.129  -4.728  1.00 30.14     0.022 A 
HETATM   29  C29   D T 501     -27.814 -32.528  -6.165  1.00 35.24     0.116 A 
HETATM   30  C26   D T 501     -26.775 -32.023  -3.647  1.00 31.67     0.022 A 
HETATM   31  C27   D T 501     -28.127 -32.182  -3.904  1.00 34.54     0.099 A 
HETATM   32  N28   D T 501     -28.646 -32.429  -5.120  1.00 34.98    -0.241 NA
ENDBRANCH   3  23
TORSDOF 5
ENDMDL
MODEL 9
REMARK VINA RESULT:    -6.627      1.893      2.525
REMARK INTER + INTRA:          -9.459
REMARK INTER:                  -8.640
REMARK INTRA:                  -0.819
REMARK UNBOUND:                -0.896
REMARK  5 active torsions:
REMARK  status: ('A' for Active; 'I' for Inactive)
REMARK    1  A    between atoms: C8_4  and  N5_32 
REMARK    2  A    between atoms: C10_6  and  O31_11 
REMARK    3  A    between atoms: C19_10  and  C21_16 
REMARK    4  A    between atoms: C11_13  and  N14_26 
REMARK    5  A    between atoms: C15_15  and  N14_26 
ROOT
HETATM    1  C17   D T 501     -22.350 -26.665   2.212  1.00 40.83     0.120 A 
HETATM    2  C18   D T 501     -21.638 -26.724   1.019  1.00 36.91     0.041 A 
HETATM    3  C19   D T 501     -20.964 -27.906   0.758  1.00 32.67     0.103 A 
HETATM    4  C15   D T 501     -21.712 -28.777   2.746  1.00 35.44     0.750 A 
HETATM    5  N16   D T 501     -22.397 -27.679   3.099  1.00 32.69    -0.058 NA
HETATM    6  N20   D T 501     -20.975 -28.940   1.611  1.00 30.98    -0.059 NA
ENDROOT
BRANCH   4   7
HETATM    7  N14   D T 501     -21.541 -29.797   3.605  1.00 32.94    -0.057 NA
BRANCH   7   8
HETATM    8  C11   D T 501     -22.314 -30.383   4.611  1.00 30.33     0.122 A 
HETATM    9  C10   D T 501     -22.755 -31.682   4.379  1.00 42.36     0.114 A 
HETATM   10  C9    D T 501     -23.607 -32.310   5.263  1.00 32.54     0.043 A 
HETATM   11  C8    D T 501     -24.023 -31.650   6.422  1.00 36.74     0.058 A 
HETATM   12  C13   D T 501     -23.563 -30.343   6.666  1.00 33.13     0.019 A 
HETATM   13  C12   D T 501     -22.709 -29.712   5.777  1.00 32.95     0.023 A 
BRANCH   9  14
HETATM   14  O31   D T 501     -22.322 -32.232   3.203  1.00 39.47    -0.327 OA
HETATM   15  C32   D T 501     -23.001 -33.421   2.745  1.00 35.80     0.181 C 
ENDBRANCH   9  14
BRANCH  11  16
HETATM   16  N5    D T 501     -24.878 -32.253   7.292  1.00 36.23    -0.344 N 
HETATM   17  C6    D T 501     -24.932 -33.721   7.252  1.00 36.45     0.137 C 
HETATM   18  C7    D T 501     -26.164 -34.234   8.004  1.00 37.09     0.274 C 
HETATM   19  N2    D T 501     -26.168 -33.719   9.403  1.00 41.14     0.143 N 
HETATM   20  C3    D T 501     -26.161 -32.229   9.397  1.00 42.05     0.274 C 
HETATM   21  C1    D T 501     -27.320 -34.252  10.180  1.00 43.53     0.286 C 
HETATM   22  C4    D T 501     -24.941 -31.704   8.653  1.00 39.69     0.137 C 
ENDBRANCH  11  16
ENDBRANCH   7   8
ENDBRANCH   4   7
BRANCH   3  23
HETATM   23  C21   D T 501     -20.314 -28.187  -0.548  1.00 32.17     0.037 A 
HETATM   24  C22   D T 501     -20.597 -29.220  -1.381  1.00 27.11     0.078 A 
HETATM   25  N23   D T 501     -19.880 -29.123  -2.547  1.00 32.26    -0.323 N 
HETATM   26  C30   D T 501     -19.996 -30.012  -3.691  1.00 31.34     0.131 C 
HETATM   27  C24   D T 501     -19.096 -27.991  -2.490  1.00 35.93     0.080 A 
HETATM   28  C25   D T 501     -19.330 -27.368  -1.256  1.00 30.14     0.022 A 
HETATM   29  C29   D T 501     -18.255 -27.402  -3.426  1.00 35.24     0.116 A 
HETATM   30  C26   D T 501     -18.694 -26.158  -0.991  1.00 31.67     0.022 A 
HETATM   31  C27   D T 501     -17.871 -25.645  -1.979  1.00 34.54     0.099 A 
HETATM   32  N28   D T 501     -17.650 -26.236  -3.167  1.00 34.98    -0.241 NA
ENDBRANCH   3  23
TORSDOF 5
ENDMDL
