MODEL 1
REMARK VINA RESULT:      -8.4      0.000      0.000
REMARK  5 active torsions:
REMARK  status: ('A' for Active; 'I' for Inactive)
REMARK    1  A    between atoms: C8_4  and  N5_32 
REMARK    2  A    between atoms: C10_6  and  O31_11 
REMARK    3  A    between atoms: C19_10  and  C21_16 
REMARK    4  A    between atoms: C11_13  and  N14_26 
REMARK    5  A    between atoms: C15_15  and  N14_26 
ROOT
HETATM    1  C17   D T 501     -22.690 -26.480   1.688  1.00 40.83     0.120 A 
HETATM    2  C18   D T 501     -21.495 -25.973   1.187  1.00 36.91     0.041 A 
HETATM    3  C19   D T 501     -20.388 -26.802   1.272  1.00 32.67     0.103 A 
HETATM    4  C15   D T 501     -21.670 -28.422   2.273  1.00 35.44     0.750 A 
HETATM    5  N16   D T 501     -22.802 -27.703   2.244  1.00 32.69    -0.058 NA
HETATM    6  N20   D T 501     -20.447 -28.023   1.822  1.00 30.98    -0.059 NA
ENDROOT
BRANCH   4   7
HETATM    7  N14   D T 501     -21.602 -29.587   2.941  1.00 32.94    -0.057 NA
BRANCH   7   8
HETATM    8  C11   D T 501     -22.164 -30.084   4.121  1.00 30.33     0.122 A 
HETATM    9  C10   D T 501     -22.659 -31.383   4.073  1.00 42.36     0.114 A 
HETATM   10  C9    D T 501     -23.323 -31.929   5.153  1.00 32.54     0.043 A 
HETATM   11  C8    D T 501     -23.487 -31.182   6.322  1.00 36.74     0.058 A 
HETATM   12  C13   D T 501     -22.971 -29.875   6.376  1.00 33.13     0.019 A 
HETATM   13  C12   D T 501     -22.306 -29.327   5.291  1.00 32.95     0.023 A 
BRANCH   9  14
HETATM   14  O31   D T 501     -22.480 -32.022   2.876  1.00 39.47    -0.327 OA
HETATM   15  C32   D T 501     -22.662 -33.453   2.862  1.00 35.80     0.181 C 
ENDBRANCH   9  14
BRANCH  11  16
HETATM   16  N5    D T 501     -24.156 -31.703   7.386  1.00 36.23    -0.344 N 
HETATM   17  C6    D T 501     -23.737 -33.036   7.840  1.00 36.45     0.137 C 
HETATM   18  C7    D T 501     -24.783 -33.638   8.783  1.00 37.09     0.274 C 
HETATM   19  N2    D T 501     -25.035 -32.719   9.929  1.00 41.14     0.143 N 
HETATM   20  C3    D T 501     -25.504 -31.396   9.427  1.00 42.05     0.274 C 
HETATM   21  C1    D T 501     -26.003 -33.303  10.898  1.00 43.53     0.286 C 
HETATM   22  C4    D T 501     -24.473 -30.785   8.489  1.00 39.69     0.137 C 
ENDBRANCH  11  16
ENDBRANCH   7   8
ENDBRANCH   4   7
BRANCH   3  23
HETATM   23  C21   D T 501     -19.092 -26.477   0.622  1.00 32.17     0.037 A 
HETATM   24  C22   D T 501     -18.801 -26.605  -0.697  1.00 27.11     0.078 A 
HETATM   25  N23   D T 501     -17.547 -26.122  -0.974  1.00 32.26    -0.323 N 
HETATM   26  C30   D T 501     -16.946 -26.029  -2.294  1.00 31.34     0.131 C 
HETATM   27  C24   D T 501     -16.985 -25.657   0.196  1.00 35.93     0.080 A 
HETATM   28  C25   D T 501     -17.913 -25.858   1.227  1.00 30.14     0.022 A 
HETATM   29  C29   D T 501     -15.782 -25.011   0.449  1.00 35.24     0.116 A 
HETATM   30  C26   D T 501     -17.596 -25.405   2.505  1.00 31.67     0.022 A 
HETATM   31  C27   D T 501     -16.374 -24.774   2.668  1.00 34.54     0.099 A 
HETATM   32  N28   D T 501     -15.484 -24.574   1.679  1.00 34.98    -0.241 NA
ENDBRANCH   3  23
TORSDOF 5
ENDMDL
MODEL 2
REMARK VINA RESULT:      -8.3      0.661      1.843
REMARK  5 active torsions:
REMARK  status: ('A' for Active; 'I' for Inactive)
REMARK    1  A    between atoms: C8_4  and  N5_32 
REMARK    2  A    between atoms: C10_6  and  O31_11 
REMARK    3  A    between atoms: C19_10  and  C21_16 
REMARK    4  A    between atoms: C11_13  and  N14_26 
REMARK    5  A    between atoms: C15_15  and  N14_26 
ROOT
HETATM    1  C17   D T 501     -22.773 -26.454   1.667  1.00 40.83     0.120 A 
HETATM    2  C18   D T 501     -21.571 -25.804   1.412  1.00 36.91     0.041 A 
HETATM    3  C19   D T 501     -20.413 -26.514   1.687  1.00 32.67     0.103 A 
HETATM    4  C15   D T 501     -21.670 -28.301   2.393  1.00 35.44     0.750 A 
HETATM    5  N16   D T 501     -22.850 -27.704   2.167  1.00 32.69    -0.058 NA
HETATM    6  N20   D T 501     -20.437 -27.756   2.190  1.00 30.98    -0.059 NA
ENDROOT
BRANCH   4   7
HETATM    7  N14   D T 501     -21.598 -29.478   3.038  1.00 32.94    -0.057 NA
BRANCH   7   8
HETATM    8  C11   D T 501     -22.173 -30.009   4.196  1.00 30.33     0.122 A 
HETATM    9  C10   D T 501     -22.644 -31.315   4.114  1.00 42.36     0.114 A 
HETATM   10  C9    D T 501     -23.319 -31.892   5.170  1.00 32.54     0.043 A 
HETATM   11  C8    D T 501     -23.518 -31.172   6.350  1.00 36.74     0.058 A 
HETATM   12  C13   D T 501     -23.025 -29.858   6.440  1.00 33.13     0.019 A 
HETATM   13  C12   D T 501     -22.350 -29.277   5.379  1.00 32.95     0.023 A 
BRANCH   9  14
HETATM   14  O31   D T 501     -22.432 -31.926   2.909  1.00 39.47    -0.327 OA
HETATM   15  C32   D T 501     -22.691 -33.344   2.836  1.00 35.80     0.181 C 
ENDBRANCH   9  14
BRANCH  11  16
HETATM   16  N5    D T 501     -24.198 -31.726   7.391  1.00 36.23    -0.344 N 
HETATM   17  C6    D T 501     -23.764 -33.059   7.827  1.00 36.45     0.137 C 
HETATM   18  C7    D T 501     -24.818 -33.697   8.738  1.00 37.09     0.274 C 
HETATM   19  N2    D T 501     -25.108 -32.805   9.896  1.00 41.14     0.143 N 
HETATM   20  C3    D T 501     -25.590 -31.481   9.411  1.00 42.05     0.274 C 
HETATM   21  C1    D T 501     -26.083 -33.425  10.834  1.00 43.53     0.286 C 
HETATM   22  C4    D T 501     -24.552 -30.835   8.505  1.00 39.69     0.137 C 
ENDBRANCH  11  16
ENDBRANCH   7   8
ENDBRANCH   4   7
BRANCH   3  23
HETATM   23  C21   D T 501     -19.064 -26.028   1.300  1.00 32.17     0.037 A 
HETATM   24  C22   D T 501     -18.033 -25.764   2.141  1.00 27.11     0.078 A 
HETATM   25  N23   D T 501     -16.900 -25.428   1.443  1.00 32.26    -0.323 N 
HETATM   26  C30   D T 501     -15.594 -25.163   2.022  1.00 31.34     0.131 C 
HETATM   27  C24   D T 501     -17.185 -25.468   0.095  1.00 35.93     0.080 A 
HETATM   28  C25   D T 501     -18.530 -25.838  -0.049  1.00 30.14     0.022 A 
HETATM   29  C29   D T 501     -16.382 -25.289  -1.024  1.00 35.24     0.116 A 
HETATM   30  C26   D T 501     -19.038 -26.011  -1.333  1.00 31.67     0.022 A 
HETATM   31  C27   D T 501     -18.168 -25.810  -2.391  1.00 34.54     0.099 A 
HETATM   32  N28   D T 501     -16.876 -25.461  -2.257  1.00 34.98    -0.241 NA
ENDBRANCH   3  23
TORSDOF 5
ENDMDL
MODEL 3
REMARK VINA RESULT:      -8.1      6.023      7.880
REMARK  5 active torsions:
REMARK  status: ('A' for Active; 'I' for Inactive)
REMARK    1  A    between atoms: C8_4  and  N5_32 
REMARK    2  A    between atoms: C10_6  and  O31_11 
REMARK    3  A    between atoms: C19_10  and  C21_16 
REMARK    4  A    between atoms: C11_13  and  N14_26 
REMARK    5  A    between atoms: C15_15  and  N14_26 
ROOT
HETATM    1  C17   D T 501     -17.808 -25.762  -3.631  1.00 40.83     0.120 A 
HETATM    2  C18   D T 501     -17.495 -25.052  -2.476  1.00 36.91     0.041 A 
HETATM    3  C19   D T 501     -17.524 -25.762  -1.287  1.00 32.67     0.103 A 
HETATM    4  C15   D T 501     -18.132 -27.660  -2.428  1.00 35.44     0.750 A 
HETATM    5  N16   D T 501     -18.138 -27.069  -3.632  1.00 32.69    -0.058 NA
HETATM    6  N20   D T 501     -17.853 -27.061  -1.235  1.00 30.98    -0.059 NA
ENDROOT
BRANCH   4   7
HETATM    7  N14   D T 501     -18.596 -28.911  -2.264  1.00 32.94    -0.057 NA
BRANCH   7   8
HETATM    8  C11   D T 501     -19.789 -29.571  -2.571  1.00 30.33     0.122 A 
HETATM    9  C10   D T 501     -20.710 -29.703  -1.537  1.00 42.36     0.114 A 
HETATM   10  C9    D T 501     -21.872 -30.426  -1.712  1.00 32.54     0.043 A 
HETATM   11  C8    D T 501     -22.147 -31.021  -2.946  1.00 36.74     0.058 A 
HETATM   12  C13   D T 501     -21.224 -30.872  -3.997  1.00 33.13     0.019 A 
HETATM   13  C12   D T 501     -20.057 -30.147  -3.821  1.00 32.95     0.023 A 
BRANCH   9  14
HETATM   14  O31   D T 501     -20.338 -29.116  -0.359  1.00 39.47    -0.327 OA
HETATM   15  C32   D T 501     -21.220 -28.111   0.182  1.00 35.80     0.181 C 
ENDBRANCH   9  14
BRANCH  11  16
HETATM   16  N5    D T 501     -23.281 -31.752  -3.123  1.00 36.23    -0.344 N 
HETATM   17  C6    D T 501     -24.259 -31.228  -4.086  1.00 36.45     0.137 C 
HETATM   18  C7    D T 501     -25.608 -31.935  -3.922  1.00 37.09     0.274 C 
HETATM   19  N2    D T 501     -25.439 -33.410  -4.055  1.00 41.14     0.143 N 
HETATM   20  C3    D T 501     -24.477 -33.906  -3.030  1.00 42.05     0.274 C 
HETATM   21  C1    D T 501     -26.742 -34.122  -3.962  1.00 43.53     0.286 C 
HETATM   22  C4    D T 501     -23.130 -33.212  -3.182  1.00 39.69     0.137 C 
ENDBRANCH  11  16
ENDBRANCH   7   8
ENDBRANCH   4   7
BRANCH   3  23
HETATM   23  C21   D T 501     -17.042 -25.193  -0.002  1.00 32.17     0.037 A 
HETATM   24  C22   D T 501     -16.086 -24.242   0.146  1.00 27.11     0.078 A 
HETATM   25  N23   D T 501     -15.956 -23.875   1.462  1.00 32.26    -0.323 N 
HETATM   26  C30   D T 501     -15.085 -22.828   1.969  1.00 31.34     0.131 C 
HETATM   27  C24   D T 501     -16.852 -24.605   2.214  1.00 35.93     0.080 A 
HETATM   28  C25   D T 501     -17.557 -25.448   1.343  1.00 30.14     0.022 A 
HETATM   29  C29   D T 501     -17.173 -24.563   3.565  1.00 35.24     0.116 A 
HETATM   30  C26   D T 501     -18.573 -26.243   1.865  1.00 31.67     0.022 A 
HETATM   31  C27   D T 501     -18.824 -26.140   3.223  1.00 34.54     0.099 A 
HETATM   32  N28   D T 501     -18.154 -25.327   4.060  1.00 34.98    -0.241 NA
ENDBRANCH   3  23
TORSDOF 5
ENDMDL
MODEL 4
REMARK VINA RESULT:      -7.6      2.189      4.713
REMARK  5 active torsions:
REMARK  status: ('A' for Active; 'I' for Inactive)
REMARK    1  A    between atoms: C8_4  and  N5_32 
REMARK    2  A    between atoms: C10_6  and  O31_11 
REMARK    3  A    between atoms: C19_10  and  C21_16 
REMARK    4  A    between atoms: C11_13  and  N14_26 
REMARK    5  A    between atoms: C15_15  and  N14_26 
ROOT
HETATM    1  C17   D T 501     -17.780 -26.359  -3.527  1.00 40.83     0.120 A 
HETATM    2  C18   D T 501     -16.962 -25.544  -2.751  1.00 36.91     0.041 A 
HETATM    3  C19   D T 501     -17.363 -25.333  -1.442  1.00 32.67     0.103 A 
HETATM    4  C15   D T 501     -19.208 -26.655  -1.787  1.00 35.44     0.750 A 
HETATM    5  N16   D T 501     -18.916 -26.923  -3.069  1.00 32.69    -0.058 NA
HETATM    6  N20   D T 501     -18.487 -25.865  -0.942  1.00 30.98    -0.059 NA
ENDROOT
BRANCH   4   7
HETATM    7  N14   D T 501     -20.387 -27.017  -1.252  1.00 32.94    -0.057 NA
BRANCH   7   8
HETATM    8  C11   D T 501     -20.791 -27.576  -0.036  1.00 30.33     0.122 A 
HETATM    9  C10   D T 501     -20.853 -28.964   0.020  1.00 42.36     0.114 A 
HETATM   10  C9    D T 501     -21.336 -29.608   1.141  1.00 32.54     0.043 A 
HETATM   11  C8    D T 501     -21.752 -28.865   2.248  1.00 36.74     0.058 A 
HETATM   12  C13   D T 501     -21.672 -27.461   2.199  1.00 33.13     0.019 A 
HETATM   13  C12   D T 501     -21.188 -26.815   1.073  1.00 32.95     0.023 A 
BRANCH   9  14
HETATM   14  O31   D T 501     -20.456 -29.602  -1.124  1.00 39.47    -0.327 OA
HETATM   15  C32   D T 501     -21.475 -30.295  -1.876  1.00 35.80     0.181 C 
ENDBRANCH   9  14
BRANCH  11  16
HETATM   16  N5    D T 501     -22.247 -29.488   3.352  1.00 36.23    -0.344 N 
HETATM   17  C6    D T 501     -22.165 -30.955   3.373  1.00 36.45     0.137 C 
HETATM   18  C7    D T 501     -23.062 -31.528   4.475  1.00 37.09     0.274 C 
HETATM   19  N2    D T 501     -22.703 -30.936   5.795  1.00 41.14     0.143 N 
HETATM   20  C3    D T 501     -22.846 -29.453   5.743  1.00 42.05     0.274 C 
HETATM   21  C1    D T 501     -23.515 -31.520   6.896  1.00 43.53     0.286 C 
HETATM   22  C4    D T 501     -21.959 -28.869   4.653  1.00 39.69     0.137 C 
ENDBRANCH  11  16
ENDBRANCH   7   8
ENDBRANCH   4   7
BRANCH   3  23
HETATM   23  C21   D T 501     -16.508 -24.640  -0.444  1.00 32.17     0.037 A 
HETATM   24  C22   D T 501     -15.494 -23.780  -0.714  1.00 27.11     0.078 A 
HETATM   25  N23   D T 501     -14.980 -23.246   0.440  1.00 32.26    -0.323 N 
HETATM   26  C30   D T 501     -13.941 -22.232   0.517  1.00 31.34     0.131 C 
HETATM   27  C24   D T 501     -15.672 -23.766   1.513  1.00 35.93     0.080 A 
HETATM   28  C25   D T 501     -16.641 -24.647   1.013  1.00 30.14     0.022 A 
HETATM   29  C29   D T 501     -15.600 -23.500   2.875  1.00 35.24     0.116 A 
HETATM   30  C26   D T 501     -17.516 -25.252   1.910  1.00 31.67     0.022 A 
HETATM   31  C27   D T 501     -17.372 -24.932   3.249  1.00 34.54     0.099 A 
HETATM   32  N28   D T 501     -16.448 -24.082   3.733  1.00 34.98    -0.241 NA
ENDBRANCH   3  23
TORSDOF 5
ENDMDL
MODEL 5
REMARK VINA RESULT:      -7.4      2.096      4.404
REMARK  5 active torsions:
REMARK  status: ('A' for Active; 'I' for Inactive)
REMARK    1  A    between atoms: C8_4  and  N5_32 
REMARK    2  A    between atoms: C10_6  and  O31_11 
REMARK    3  A    between atoms: C19_10  and  C21_16 
REMARK    4  A    between atoms: C11_13  and  N14_26 
REMARK    5  A    between atoms: C15_15  and  N14_26 
ROOT
HETATM    1  C17   D T 501     -18.392 -27.000  -2.902  1.00 40.83     0.120 A 
HETATM    2  C18   D T 501     -17.481 -26.139  -2.300  1.00 36.91     0.041 A 
HETATM    3  C19   D T 501     -17.773 -25.733  -1.008  1.00 32.67     0.103 A 
HETATM    4  C15   D T 501     -19.701 -26.978  -1.046  1.00 35.44     0.750 A 
HETATM    5  N16   D T 501     -19.518 -27.430  -2.296  1.00 32.69    -0.058 NA
HETATM    6  N20   D T 501     -18.881 -26.127  -0.366  1.00 30.98    -0.059 NA
ENDROOT
BRANCH   4   7
HETATM    7  N14   D T 501     -20.854 -27.195  -0.389  1.00 32.94    -0.057 NA
BRANCH   7   8
HETATM    8  C11   D T 501     -21.244 -28.007   0.680  1.00 30.33     0.122 A 
HETATM    9  C10   D T 501     -21.927 -27.381   1.717  1.00 42.36     0.114 A 
HETATM   10  C9    D T 501     -22.266 -28.072   2.862  1.00 32.54     0.043 A 
HETATM   11  C8    D T 501     -21.942 -29.426   2.982  1.00 36.74     0.058 A 
HETATM   12  C13   D T 501     -21.267 -30.063   1.925  1.00 33.13     0.019 A 
HETATM   13  C12   D T 501     -20.925 -29.368   0.777  1.00 32.95     0.023 A 
BRANCH   9  14
HETATM   14  O31   D T 501     -22.170 -26.048   1.522  1.00 39.47    -0.327 OA
HETATM   15  C32   D T 501     -21.383 -25.117   2.295  1.00 35.80     0.181 C 
ENDBRANCH   9  14
BRANCH  11  16
HETATM   16  N5    D T 501     -22.255 -30.113   4.114  1.00 36.23    -0.344 N 
HETATM   17  C6    D T 501     -22.705 -29.319   5.265  1.00 36.45     0.137 C 
HETATM   18  C7    D T 501     -22.674 -30.160   6.545  1.00 37.09     0.274 C 
HETATM   19  N2    D T 501     -23.492 -31.394   6.373  1.00 41.14     0.143 N 
HETATM   20  C3    D T 501     -22.972 -32.193   5.227  1.00 42.05     0.274 C 
HETATM   21  C1    D T 501     -23.533 -32.202   7.622  1.00 43.53     0.286 C 
HETATM   22  C4    D T 501     -22.997 -31.370   3.947  1.00 39.69     0.137 C 
ENDBRANCH  11  16
ENDBRANCH   7   8
ENDBRANCH   4   7
BRANCH   3  23
HETATM   23  C21   D T 501     -16.812 -24.965  -0.173  1.00 32.17     0.037 A 
HETATM   24  C22   D T 501     -15.791 -24.196  -0.626  1.00 27.11     0.078 A 
HETATM   25  N23   D T 501     -15.164 -23.550   0.410  1.00 32.26    -0.323 N 
HETATM   26  C30   D T 501     -14.084 -22.587   0.279  1.00 31.34     0.131 C 
HETATM   27  C24   D T 501     -15.787 -23.899   1.589  1.00 35.93     0.080 A 
HETATM   28  C25   D T 501     -16.827 -24.787   1.279  1.00 30.14     0.022 A 
HETATM   29  C29   D T 501     -15.594 -23.472   2.896  1.00 35.24     0.116 A 
HETATM   30  C26   D T 501     -17.650 -25.233   2.309  1.00 31.67     0.022 A 
HETATM   31  C27   D T 501     -17.385 -24.758   3.582  1.00 34.54     0.099 A 
HETATM   32  N28   D T 501     -16.392 -23.902   3.883  1.00 34.98    -0.241 NA
ENDBRANCH   3  23
TORSDOF 5
ENDMDL
MODEL 6
REMARK VINA RESULT:      -6.8      2.100     10.364
REMARK  5 active torsions:
REMARK  status: ('A' for Active; 'I' for Inactive)
REMARK    1  A    between atoms: C8_4  and  N5_32 
REMARK    2  A    between atoms: C10_6  and  O31_11 
REMARK    3  A    between atoms: C19_10  and  C21_16 
REMARK    4  A    between atoms: C11_13  and  N14_26 
REMARK    5  A    between atoms: C15_15  and  N14_26 
ROOT
HETATM    1  C17   D T 501     -22.276 -31.761   3.533  1.00 40.83     0.120 A 
HETATM    2  C18   D T 501     -22.891 -31.818   4.779  1.00 36.91     0.041 A 
HETATM    3  C19   D T 501     -23.328 -30.616   5.310  1.00 32.67     0.103 A 
HETATM    4  C15   D T 501     -22.552 -29.508   3.455  1.00 35.44     0.750 A 
HETATM    5  N16   D T 501     -22.087 -30.613   2.851  1.00 32.69    -0.058 NA
HETATM    6  N20   D T 501     -23.159 -29.448   4.674  1.00 30.98    -0.059 NA
ENDROOT
BRANCH   4   7
HETATM    7  N14   D T 501     -22.288 -28.284   2.965  1.00 32.94    -0.057 NA
BRANCH   7   8
HETATM    8  C11   D T 501     -21.126 -27.581   2.634  1.00 30.33     0.122 A 
HETATM    9  C10   D T 501     -20.814 -27.498   1.281  1.00 42.36     0.114 A 
HETATM   10  C9    D T 501     -19.638 -26.914   0.860  1.00 32.54     0.043 A 
HETATM   11  C8    D T 501     -18.750 -26.376   1.795  1.00 36.74     0.058 A 
HETATM   12  C13   D T 501     -19.075 -26.443   3.162  1.00 33.13     0.019 A 
HETATM   13  C12   D T 501     -20.255 -27.032   3.585  1.00 32.95     0.023 A 
BRANCH   9  14
HETATM   14  O31   D T 501     -21.727 -28.082   0.446  1.00 39.47    -0.327 OA
HETATM   15  C32   D T 501     -21.208 -28.855  -0.657  1.00 35.80     0.181 C 
ENDBRANCH   9  14
BRANCH  11  16
HETATM   16  N5    D T 501     -17.578 -25.814   1.392  1.00 36.23    -0.344 N 
HETATM   17  C6    D T 501     -17.610 -25.051   0.137  1.00 36.45     0.137 C 
HETATM   18  C7    D T 501     -16.189 -24.790  -0.371  1.00 37.09     0.274 C 
HETATM   19  N2    D T 501     -15.385 -24.097   0.675  1.00 41.14     0.143 N 
HETATM   20  C3    D T 501     -15.339 -24.925   1.914  1.00 42.05     0.274 C 
HETATM   21  C1    D T 501     -14.016 -23.772   0.190  1.00 43.53     0.286 C 
HETATM   22  C4    D T 501     -16.746 -25.192   2.430  1.00 39.69     0.137 C 
ENDBRANCH  11  16
ENDBRANCH   7   8
ENDBRANCH   4   7
BRANCH   3  23
HETATM   23  C21   D T 501     -24.159 -30.537   6.539  1.00 32.17     0.037 A 
HETATM   24  C22   D T 501     -23.707 -30.572   7.818  1.00 27.11     0.078 A 
HETATM   25  N23   D T 501     -24.732 -30.376   8.709  1.00 32.26    -0.323 N 
HETATM   26  C30   D T 501     -24.594 -30.273  10.152  1.00 31.34     0.131 C 
HETATM   27  C24   D T 501     -25.904 -30.206   8.002  1.00 35.93     0.080 A 
HETATM   28  C25   D T 501     -25.599 -30.299   6.637  1.00 30.14     0.022 A 
HETATM   29  C29   D T 501     -27.195 -29.904   8.415  1.00 35.24     0.116 A 
HETATM   30  C26   D T 501     -26.619 -30.093   5.712  1.00 31.67     0.022 A 
HETATM   31  C27   D T 501     -27.877 -29.800   6.212  1.00 34.54     0.099 A 
HETATM   32  N28   D T 501     -28.171 -29.702   7.521  1.00 34.98    -0.241 NA
ENDBRANCH   3  23
TORSDOF 5
ENDMDL
MODEL 7
REMARK VINA RESULT:      -6.6      1.901      2.959
REMARK  5 active torsions:
REMARK  status: ('A' for Active; 'I' for Inactive)
REMARK    1  A    between atoms: C8_4  and  N5_32 
REMARK    2  A    between atoms: C10_6  and  O31_11 
REMARK    3  A    between atoms: C19_10  and  C21_16 
REMARK    4  A    between atoms: C11_13  and  N14_26 
REMARK    5  A    between atoms: C15_15  and  N14_26 
ROOT
HETATM    1  C17   D T 501     -21.567 -28.419  -1.708  1.00 40.83     0.120 A 
HETATM    2  C18   D T 501     -20.574 -27.529  -2.101  1.00 36.91     0.041 A 
HETATM    3  C19   D T 501     -19.514 -27.357  -1.225  1.00 32.67     0.103 A 
HETATM    4  C15   D T 501     -20.470 -28.852   0.233  1.00 35.44     0.750 A 
HETATM    5  N16   D T 501     -21.542 -29.090  -0.538  1.00 32.69    -0.058 NA
HETATM    6  N20   D T 501     -19.447 -27.996  -0.048  1.00 30.98    -0.059 NA
ENDROOT
BRANCH   4   7
HETATM    7  N14   D T 501     -20.396 -29.326   1.488  1.00 32.94    -0.057 NA
BRANCH   7   8
HETATM    8  C11   D T 501     -21.321 -29.579   2.506  1.00 30.33     0.122 A 
HETATM    9  C10   D T 501     -21.703 -28.490   3.282  1.00 42.36     0.114 A 
HETATM   10  C9    D T 501     -22.532 -28.653   4.373  1.00 32.54     0.043 A 
HETATM   11  C8    D T 501     -23.016 -29.922   4.699  1.00 36.74     0.058 A 
HETATM   12  C13   D T 501     -22.644 -31.020   3.903  1.00 33.13     0.019 A 
HETATM   13  C12   D T 501     -21.811 -30.857   2.809  1.00 32.95     0.023 A 
BRANCH   9  14
HETATM   14  O31   D T 501     -21.152 -27.295   2.906  1.00 39.47    -0.327 OA
HETATM   15  C32   D T 501     -22.016 -26.355   2.235  1.00 35.80     0.181 C 
ENDBRANCH   9  14
BRANCH  11  16
HETATM   16  N5    D T 501     -23.819 -30.098   5.784  1.00 36.23    -0.344 N 
HETATM   17  C6    D T 501     -25.154 -30.656   5.533  1.00 36.45     0.137 C 
HETATM   18  C7    D T 501     -26.056 -30.465   6.756  1.00 37.09     0.274 C 
HETATM   19  N2    D T 501     -25.425 -31.067   7.964  1.00 41.14     0.143 N 
HETATM   20  C3    D T 501     -24.095 -30.440   8.210  1.00 42.05     0.274 C 
HETATM   21  C1    D T 501     -26.306 -30.953   9.157  1.00 43.53     0.286 C 
HETATM   22  C4    D T 501     -23.187 -30.623   7.002  1.00 39.69     0.137 C 
ENDBRANCH  11  16
ENDBRANCH   7   8
ENDBRANCH   4   7
BRANCH   3  23
HETATM   23  C21   D T 501     -18.297 -26.584  -1.581  1.00 32.17     0.037 A 
HETATM   24  C22   D T 501     -17.805 -26.392  -2.831  1.00 27.11     0.078 A 
HETATM   25  N23   D T 501     -16.724 -25.547  -2.811  1.00 32.26    -0.323 N 
HETATM   26  C30   D T 501     -16.004 -25.063  -3.977  1.00 31.34     0.131 C 
HETATM   27  C24   D T 501     -16.488 -25.165  -1.508  1.00 35.93     0.080 A 
HETATM   28  C25   D T 501     -17.446 -25.788  -0.697  1.00 30.14     0.022 A 
HETATM   29  C29   D T 501     -15.574 -24.274  -0.959  1.00 35.24     0.116 A 
HETATM   30  C26   D T 501     -17.452 -25.502   0.666  1.00 31.67     0.022 A 
HETATM   31  C27   D T 501     -16.505 -24.604   1.128  1.00 34.54     0.099 A 
HETATM   32  N28   D T 501     -15.589 -23.998   0.352  1.00 34.98    -0.241 NA
ENDBRANCH   3  23
TORSDOF 5
ENDMDL
MODEL 8
REMARK VINA RESULT:      -6.5      1.683     10.411
REMARK  5 active torsions:
REMARK  status: ('A' for Active; 'I' for Inactive)
REMARK    1  A    between atoms: C8_4  and  N5_32 
REMARK    2  A    between atoms: C10_6  and  O31_11 
REMARK    3  A    between atoms: C19_10  and  C21_16 
REMARK    4  A    between atoms: C11_13  and  N14_26 
REMARK    5  A    between atoms: C15_15  and  N14_26 
ROOT
HETATM    1  C17   D T 501     -22.113 -31.502   2.986  1.00 40.83     0.120 A 
HETATM    2  C18   D T 501     -22.680 -31.777   4.226  1.00 36.91     0.041 A 
HETATM    3  C19   D T 501     -23.039 -30.683   4.998  1.00 32.67     0.103 A 
HETATM    4  C15   D T 501     -22.284 -29.268   3.356  1.00 35.44     0.750 A 
HETATM    5  N16   D T 501     -21.897 -30.252   2.529  1.00 32.69    -0.058 NA
HETATM    6  N20   D T 501     -22.838 -29.422   4.592  1.00 30.98    -0.059 NA
ENDROOT
BRANCH   4   7
HETATM    7  N14   D T 501     -21.981 -27.984   3.099  1.00 32.94    -0.057 NA
BRANCH   7   8
HETATM    8  C11   D T 501     -20.814 -27.290   2.766  1.00 30.33     0.122 A 
HETATM    9  C10   D T 501     -20.597 -27.052   1.413  1.00 42.36     0.114 A 
HETATM   10  C9    D T 501     -19.427 -26.466   0.976  1.00 32.54     0.043 A 
HETATM   11  C8    D T 501     -18.450 -26.083   1.898  1.00 36.74     0.058 A 
HETATM   12  C13   D T 501     -18.678 -26.306   3.267  1.00 33.13     0.019 A 
HETATM   13  C12   D T 501     -19.852 -26.897   3.706  1.00 32.95     0.023 A 
BRANCH   9  14
HETATM   14  O31   D T 501     -21.594 -27.493   0.586  1.00 39.47    -0.327 OA
HETATM   15  C32   D T 501     -21.221 -28.420  -0.455  1.00 35.80     0.181 C 
ENDBRANCH   9  14
BRANCH  11  16
HETATM   16  N5    D T 501     -17.284 -25.521   1.476  1.00 36.23    -0.344 N 
HETATM   17  C6    D T 501     -17.289 -24.923   0.134  1.00 36.45     0.137 C 
HETATM   18  C7    D T 501     -15.857 -24.660  -0.342  1.00 37.09     0.274 C 
HETATM   19  N2    D T 501     -15.133 -23.805   0.641  1.00 41.14     0.143 N 
HETATM   20  C3    D T 501     -15.111 -24.470   1.974  1.00 42.05     0.274 C 
HETATM   21  C1    D T 501     -13.757 -23.479   0.175  1.00 43.53     0.286 C 
HETATM   22  C4    D T 501     -16.528 -24.737   2.462  1.00 39.69     0.137 C 
ENDBRANCH  11  16
ENDBRANCH   7   8
ENDBRANCH   4   7
BRANCH   3  23
HETATM   23  C21   D T 501     -23.815 -30.813   6.258  1.00 32.17     0.037 A 
HETATM   24  C22   D T 501     -24.816 -29.995   6.672  1.00 27.11     0.078 A 
HETATM   25  N23   D T 501     -25.384 -30.460   7.832  1.00 32.26    -0.323 N 
HETATM   26  C30   D T 501     -26.530 -29.877   8.508  1.00 31.34     0.131 C 
HETATM   27  C24   D T 501     -24.742 -31.623   8.202  1.00 35.93     0.080 A 
HETATM   28  C25   D T 501     -23.749 -31.887   7.249  1.00 30.14     0.022 A 
HETATM   29  C29   D T 501     -24.977 -32.517   9.239  1.00 35.24     0.116 A 
HETATM   30  C26   D T 501     -23.002 -33.056   7.373  1.00 31.67     0.022 A 
HETATM   31  C27   D T 501     -23.301 -33.888   8.438  1.00 34.54     0.099 A 
HETATM   32  N28   D T 501     -24.258 -33.641   9.350  1.00 34.98    -0.241 NA
ENDBRANCH   3  23
TORSDOF 5
ENDMDL
MODEL 9
REMARK VINA RESULT:      -6.1      2.043      3.958
REMARK  5 active torsions:
REMARK  status: ('A' for Active; 'I' for Inactive)
REMARK    1  A    between atoms: C8_4  and  N5_32 
REMARK    2  A    between atoms: C10_6  and  O31_11 
REMARK    3  A    between atoms: C19_10  and  C21_16 
REMARK    4  A    between atoms: C11_13  and  N14_26 
REMARK    5  A    between atoms: C15_15  and  N14_26 
ROOT
HETATM    1  C17   D T 501     -18.184 -28.254  -1.927  1.00 40.83     0.120 A 
HETATM    2  C18   D T 501     -17.531 -27.207  -1.287  1.00 36.91     0.041 A 
HETATM    3  C19   D T 501     -18.139 -26.700  -0.150  1.00 32.67     0.103 A 
HETATM    4  C15   D T 501     -19.854 -28.207  -0.389  1.00 35.44     0.750 A 
HETATM    5  N16   D T 501     -19.355 -28.769  -1.500  1.00 32.69    -0.058 NA
HETATM    6  N20   D T 501     -19.305 -27.173   0.311  1.00 30.98    -0.059 NA
ENDROOT
BRANCH   4   7
HETATM    7  N14   D T 501     -21.087 -28.512   0.052  1.00 32.94    -0.057 NA
BRANCH   7   8
HETATM    8  C11   D T 501     -21.628 -28.913   1.277  1.00 30.33     0.122 A 
HETATM    9  C10   D T 501     -22.343 -27.952   1.985  1.00 42.36     0.114 A 
HETATM   10  C9    D T 501     -22.828 -28.218   3.249  1.00 32.54     0.043 A 
HETATM   11  C8    D T 501     -22.623 -29.474   3.826  1.00 36.74     0.058 A 
HETATM   12  C13   D T 501     -21.916 -30.451   3.103  1.00 33.13     0.019 A 
HETATM   13  C12   D T 501     -21.427 -30.183   1.835  1.00 32.95     0.023 A 
BRANCH   9  14
HETATM   14  O31   D T 501     -22.462 -26.745   1.353  1.00 39.47    -0.327 OA
HETATM   15  C32   D T 501     -21.790 -25.619   1.955  1.00 35.80     0.181 C 
ENDBRANCH   9  14
BRANCH  11  16
HETATM   16  N5    D T 501     -23.082 -29.742   5.079  1.00 36.23    -0.344 N 
HETATM   17  C6    D T 501     -24.478 -30.186   5.189  1.00 36.45     0.137 C 
HETATM   18  C7    D T 501     -24.956 -30.103   6.642  1.00 37.09     0.274 C 
HETATM   19  N2    D T 501     -24.054 -30.890   7.530  1.00 41.14     0.143 N 
HETATM   20  C3    D T 501     -22.659 -30.376   7.424  1.00 42.05     0.274 C 
HETATM   21  C1    D T 501     -24.529 -30.881   8.940  1.00 43.53     0.286 C 
HETATM   22  C4    D T 501     -22.170 -30.454   5.984  1.00 39.69     0.137 C 
ENDBRANCH  11  16
ENDBRANCH   7   8
ENDBRANCH   4   7
BRANCH   3  23
HETATM   23  C21   D T 501     -17.477 -25.710   0.739  1.00 32.17     0.037 A 
HETATM   24  C22   D T 501     -17.773 -25.478   2.042  1.00 27.11     0.078 A 
HETATM   25  N23   D T 501     -16.902 -24.569   2.591  1.00 32.26    -0.323 N 
HETATM   26  C30   D T 501     -16.878 -24.151   3.982  1.00 31.34     0.131 C 
HETATM   27  C24   D T 501     -15.999 -24.185   1.623  1.00 35.93     0.080 A 
HETATM   28  C25   D T 501     -16.316 -24.871   0.442  1.00 30.14     0.022 A 
HETATM   29  C29   D T 501     -14.885 -23.357   1.677  1.00 35.24     0.116 A 
HETATM   30  C26   D T 501     -15.497 -24.695  -0.670  1.00 31.67     0.022 A 
HETATM   31  C27   D T 501     -14.409 -23.851  -0.528  1.00 34.54     0.099 A 
HETATM   32  N28   D T 501     -14.098 -23.196   0.605  1.00 34.98    -0.241 NA
ENDBRANCH   3  23
TORSDOF 5
ENDMDL
