MODEL 1
REMARK VINA RESULT:    -7.779      0.000      0.000
REMARK INTER + INTRA:         -14.007
REMARK INTER:                 -12.326
REMARK INTRA:                  -1.681
REMARK UNBOUND:                -1.681
REMARK  10 active torsions:
REMARK  status: ('A' for Active; 'I' for Inactive)
REMARK    1  A    between atoms: C15_2  and  N16_35 
REMARK    2  A    between atoms: C17_3  and  C18_17 
REMARK       I    between atoms: C17_3  and  N16_35 
REMARK    3  A    between atoms: C20_4  and  C19_18 
REMARK    4  A    between atoms: C20_4  and  N21_36 
REMARK    5  A    between atoms: C05_10  and  N06_33 
REMARK    6  A    between atoms: C07_11  and  N06_33 
REMARK    7  A    between atoms: C09_13  and  N10_34 
REMARK    8  A    between atoms: C11_14  and  C12_15 
REMARK       I    between atoms: C11_14  and  N10_34 
REMARK    9  A    between atoms: C18_17  and  C19_18 
REMARK   10  A    between atoms: C32_23  and  C33_24 
ROOT
HETATM    1  C28   D T 401     161.181 139.119 121.798  1.00 21.18     0.019 A 
HETATM    2  C07   D T 401     163.700 139.104 122.992  1.00 19.06     0.101 A 
HETATM    3  C08   D T 401     162.575 138.740 123.722  1.00 16.94     0.039 A 
HETATM    4  C09   D T 401     161.326 138.751 123.127  1.00 21.45     0.086 A 
HETATM    5  C29   D T 401     162.302 139.485 121.061  1.00 19.78     0.003 A 
HETATM    6  C30   D T 401     163.555 139.475 121.661  1.00 21.58     0.020 A 
ENDROOT
BRANCH   4   7
HETATM    7  N10   D T 401     160.158 138.355 123.914  1.00 19.17    -0.208 NA
HETATM    8  C11   D T 401     158.989 139.223 124.032  1.00 22.26     0.279 C 
HETATM    9  O27   D T 401     158.952 140.276 123.490  1.00 26.07    -0.265 OA
BRANCH   8  10
HETATM   10  C12   D T 401     157.813 138.703 124.884  1.00 24.43     0.058 A 
HETATM   11  C13   D T 401     156.514 138.673 124.391  1.00 19.42     0.006 A 
HETATM   12  C14   D T 401     155.486 138.182 125.195  1.00 22.31     0.019 A 
HETATM   13  C15   D T 401     155.755 137.733 126.485  1.00 21.62     0.084 A 
HETATM   14  C25   D T 401     157.057 137.759 126.963  1.00 21.42     0.019 A 
HETATM   15  C26   D T 401     158.084 138.247 126.164  1.00 21.95     0.006 A 
BRANCH  13  16
HETATM   16  N16   D T 401     154.706 137.199 127.366  1.00 25.51    -0.212 NA
HETATM   17  C17   D T 401     153.840 137.991 128.242  1.00 24.13     0.256 C 
HETATM   18  O24   D T 401     153.931 139.167 128.316  1.00 25.64    -0.270 OA
BRANCH  17  19
HETATM   19  C18   D T 401     152.793 137.249 129.089  1.00 23.56     0.092 C 
BRANCH  19  20
HETATM   20  C19   D T 401     152.106 136.115 128.318  1.00 23.00     0.045 C 
BRANCH  20  21
HETATM   21  C20   D T 401     151.118 136.617 127.255  1.00 23.91     0.251 C 
BRANCH  21  22
HETATM   22  N21   D T 401     151.419 136.133 125.911  1.00 24.92     0.141 N 
HETATM   23  C22   D T 401     152.357 135.026 125.971  1.00 20.50     0.285 C 
HETATM   24  C23   D T 401     151.935 137.182 125.044  1.00 22.52     0.285 C 
ENDBRANCH  21  22
ENDBRANCH  20  21
ENDBRANCH  19  20
ENDBRANCH  17  19
ENDBRANCH  13  16
ENDBRANCH   8  10
ENDBRANCH   4   7
BRANCH   2  25
HETATM   25  N06   D T 401     164.991 139.074 123.683  1.00 17.51    -0.059 NA
BRANCH  25  26
HETATM   26  C05   D T 401     165.208 138.771 125.098  1.00 12.97     0.750 A 
HETATM   27  N04   D T 401     165.700 137.589 125.403  1.00 12.15    -0.057 NA
HETATM   28  C03   D T 401     165.917 137.233 126.655  1.00 11.33     0.131 A 
HETATM   29  C02   D T 401     165.613 138.130 127.669  1.00 11.26     0.096 A 
HETATM   30  C32   D T 401     165.086 139.374 127.329  1.00 14.70     0.113 A 
HETATM   31 CL01   D T 401     165.908 137.648 129.361  1.00 21.09    -0.079 Cl
HETATM   32  N31   D T 401     164.904 139.636 126.045  1.00 12.85    -0.058 NA
BRANCH  30  33
HETATM   33  C33   D T 401     164.710 140.441 128.363  1.00 15.44     0.040 A 
HETATM   34  C34   D T 401     165.561 141.326 129.005  1.00 16.40     0.101 A 
HETATM   35  N35   D T 401     164.831 142.073 129.832  1.00 15.92    -0.244 NA
HETATM   36  C36   D T 401     163.521 141.692 129.756  1.00 17.01     0.082 A 
HETATM   37  C37   D T 401     162.371 142.175 130.436  1.00 19.80     0.019 A 
HETATM   38  C41   D T 401     163.405 140.673 128.854  1.00 17.83     0.021 A 
HETATM   39  C38   D T 401     161.129 141.612 130.181  1.00 21.73     0.002 A 
HETATM   40  C39   D T 401     161.010 140.571 129.261  1.00 19.54     0.000 A 
HETATM   41  C40   D T 401     162.138 140.098 128.597  1.00 19.06     0.002 A 
ENDBRANCH  30  33
ENDBRANCH  25  26
ENDBRANCH   2  25
TORSDOF 10
ENDMDL
MODEL 2
REMARK VINA RESULT:    -7.765      5.084      7.281
REMARK INTER + INTRA:         -13.986
REMARK INTER:                 -12.567
REMARK INTRA:                  -1.419
REMARK UNBOUND:                -1.681
REMARK  10 active torsions:
REMARK  status: ('A' for Active; 'I' for Inactive)
REMARK    1  A    between atoms: C15_2  and  N16_35 
REMARK    2  A    between atoms: C17_3  and  C18_17 
REMARK       I    between atoms: C17_3  and  N16_35 
REMARK    3  A    between atoms: C20_4  and  C19_18 
REMARK    4  A    between atoms: C20_4  and  N21_36 
REMARK    5  A    between atoms: C05_10  and  N06_33 
REMARK    6  A    between atoms: C07_11  and  N06_33 
REMARK    7  A    between atoms: C09_13  and  N10_34 
REMARK    8  A    between atoms: C11_14  and  C12_15 
REMARK       I    between atoms: C11_14  and  N10_34 
REMARK    9  A    between atoms: C18_17  and  C19_18 
REMARK   10  A    between atoms: C32_23  and  C33_24 
ROOT
HETATM    1  C28   D T 401     162.182 138.053 121.681  1.00 21.18     0.019 A 
HETATM    2  C07   D T 401     163.466 140.500 121.316  1.00 19.06     0.101 A 
HETATM    3  C08   D T 401     162.397 140.393 122.197  1.00 16.94     0.039 A 
HETATM    4  C09   D T 401     161.761 139.176 122.374  1.00 21.45     0.086 A 
HETATM    5  C29   D T 401     163.251 138.152 120.797  1.00 19.78     0.003 A 
HETATM    6  C30   D T 401     163.887 139.374 120.619  1.00 21.58     0.020 A 
ENDROOT
BRANCH   4   7
HETATM    7  N10   D T 401     160.643 139.087 123.314  1.00 19.17    -0.208 NA
HETATM    8  C11   D T 401     159.264 138.974 122.849  1.00 22.26     0.279 C 
HETATM    9  O27   D T 401     159.009 138.949 121.692  1.00 26.07    -0.265 OA
BRANCH   8  10
HETATM   10  C12   D T 401     158.164 138.883 123.927  1.00 24.43     0.058 A 
HETATM   11  C13   D T 401     158.218 139.642 125.090  1.00 19.42     0.006 A 
HETATM   12  C14   D T 401     157.193 139.534 126.029  1.00 22.31     0.019 A 
HETATM   13  C15   D T 401     156.127 138.666 125.809  1.00 21.62     0.084 A 
HETATM   14  C25   D T 401     156.078 137.920 124.640  1.00 21.42     0.019 A 
HETATM   15  C26   D T 401     157.098 138.026 123.702  1.00 21.95     0.006 A 
BRANCH  13  16
HETATM   16  N16   D T 401     155.019 138.524 126.766  1.00 25.51    -0.212 NA
HETATM   17  C17   D T 401     155.078 137.810 128.043  1.00 24.13     0.256 C 
HETATM   18  O24   D T 401     156.059 137.263 128.410  1.00 25.64    -0.270 OA
BRANCH  17  19
HETATM   19  C18   D T 401     153.811 137.776 128.913  1.00 23.56     0.092 C 
BRANCH  19  20
HETATM   20  C19   D T 401     153.139 136.397 128.923  1.00 23.00     0.045 C 
BRANCH  20  21
HETATM   21  C20   D T 401     152.621 135.965 127.544  1.00 23.91     0.251 C 
BRANCH  21  22
HETATM   22  N21   D T 401     151.764 136.962 126.908  1.00 24.92     0.141 N 
HETATM   23  C22   D T 401     150.381 136.765 127.305  1.00 20.50     0.285 C 
HETATM   24  C23   D T 401     151.877 136.949 125.458  1.00 22.52     0.285 C 
ENDBRANCH  21  22
ENDBRANCH  20  21
ENDBRANCH  19  20
ENDBRANCH  17  19
ENDBRANCH  13  16
ENDBRANCH   8  10
ENDBRANCH   4   7
BRANCH   2  25
HETATM   25  N06   D T 401     164.093 141.816 121.173  1.00 17.51    -0.059 NA
BRANCH  25  26
HETATM   26  C05   D T 401     164.071 142.659 119.977  1.00 12.97     0.750 A 
HETATM   27  N04   D T 401     164.745 142.247 118.924  1.00 12.15    -0.057 NA
HETATM   28  C03   D T 401     164.785 142.952 117.809  1.00 11.33     0.131 A 
HETATM   29  C02   D T 401     164.100 144.158 117.755  1.00 11.26     0.096 A 
HETATM   30  C32   D T 401     163.399 144.583 118.880  1.00 14.70     0.113 A 
HETATM   31 CL01   D T 401     164.153 145.109 116.247  1.00 21.09    -0.079 Cl
HETATM   32  N31   D T 401     163.421 143.806 119.950  1.00 12.85    -0.058 NA
BRANCH  30  33
HETATM   33  C33   D T 401     162.611 145.897 118.936  1.00 15.44     0.040 A 
HETATM   34  C34   D T 401     163.107 147.164 119.199  1.00 16.40     0.101 A 
HETATM   35  N35   D T 401     162.088 148.020 119.165  1.00 15.92    -0.244 NA
HETATM   36  C36   D T 401     160.932 147.345 118.896  1.00 17.01     0.082 A 
HETATM   37  C37   D T 401     159.594 147.805 118.762  1.00 19.80     0.019 A 
HETATM   38  C41   D T 401     161.215 146.016 118.752  1.00 17.83     0.021 A 
HETATM   39  C38   D T 401     158.576 146.904 118.483  1.00 21.73     0.002 A 
HETATM   40  C39   D T 401     158.865 145.548 118.338  1.00 19.54     0.000 A 
HETATM   41  C40   D T 401     160.176 145.098 118.470  1.00 19.06     0.002 A 
ENDBRANCH  30  33
ENDBRANCH  25  26
ENDBRANCH   2  25
TORSDOF 10
ENDMDL
MODEL 3
REMARK VINA RESULT:    -7.531      4.842     11.342
REMARK INTER + INTRA:         -13.614
REMARK INTER:                 -12.779
REMARK INTRA:                  -0.836
REMARK UNBOUND:                -1.681
REMARK  10 active torsions:
REMARK  status: ('A' for Active; 'I' for Inactive)
REMARK    1  A    between atoms: C15_2  and  N16_35 
REMARK    2  A    between atoms: C17_3  and  C18_17 
REMARK       I    between atoms: C17_3  and  N16_35 
REMARK    3  A    between atoms: C20_4  and  C19_18 
REMARK    4  A    between atoms: C20_4  and  N21_36 
REMARK    5  A    between atoms: C05_10  and  N06_33 
REMARK    6  A    between atoms: C07_11  and  N06_33 
REMARK    7  A    between atoms: C09_13  and  N10_34 
REMARK    8  A    between atoms: C11_14  and  C12_15 
REMARK       I    between atoms: C11_14  and  N10_34 
REMARK    9  A    between atoms: C18_17  and  C19_18 
REMARK   10  A    between atoms: C32_23  and  C33_24 
ROOT
HETATM    1  C28   D T 401     158.302 140.392 123.676  1.00 21.18     0.019 A 
HETATM    2  C07   D T 401     158.273 138.814 125.975  1.00 19.06     0.101 A 
HETATM    3  C08   D T 401     158.915 138.369 124.826  1.00 16.94     0.039 A 
HETATM    4  C09   D T 401     158.926 139.154 123.686  1.00 21.45     0.086 A 
HETATM    5  C29   D T 401     157.657 140.844 124.822  1.00 19.78     0.003 A 
HETATM    6  C30   D T 401     157.645 140.053 125.965  1.00 21.58     0.020 A 
ENDROOT
BRANCH   4   7
HETATM    7  N10   D T 401     159.617 138.667 122.492  1.00 19.17    -0.208 NA
HETATM    8  C11   D T 401     161.074 138.677 122.398  1.00 22.26     0.279 C 
HETATM    9  O27   D T 401     161.742 139.079 123.291  1.00 26.07    -0.265 OA
BRANCH   8  10
HETATM   10  C12   D T 401     161.697 138.135 121.095  1.00 24.43     0.058 A 
HETATM   11  C13   D T 401     161.052 137.178 120.321  1.00 19.42     0.006 A 
HETATM   12  C14   D T 401     161.651 136.730 119.144  1.00 22.31     0.019 A 
HETATM   13  C15   D T 401     162.888 137.231 118.749  1.00 21.62     0.084 A 
HETATM   14  C25   D T 401     163.518 138.193 119.524  1.00 21.42     0.019 A 
HETATM   15  C26   D T 401     162.924 138.643 120.698  1.00 21.95     0.006 A 
BRANCH  13  16
HETATM   16  N16   D T 401     163.554 136.795 117.513  1.00 25.51    -0.212 NA
HETATM   17  C17   D T 401     163.397 137.410 116.193  1.00 24.13     0.256 C 
HETATM   18  O24   D T 401     162.684 138.335 116.015  1.00 25.64    -0.270 OA
BRANCH  17  19
HETATM   19  C18   D T 401     164.186 136.812 115.016  1.00 23.56     0.092 C 
BRANCH  19  20
HETATM   20  C19   D T 401     163.619 135.466 114.549  1.00 23.00     0.045 C 
BRANCH  20  21
HETATM   21  C20   D T 401     164.565 134.286 114.814  1.00 23.91     0.251 C 
BRANCH  21  22
HETATM   22  N21   D T 401     165.897 134.697 115.248  1.00 24.92     0.141 N 
HETATM   23  C22   D T 401     166.896 134.267 114.286  1.00 20.50     0.285 C 
HETATM   24  C23   D T 401     166.229 134.197 116.574  1.00 22.52     0.285 C 
ENDBRANCH  21  22
ENDBRANCH  20  21
ENDBRANCH  19  20
ENDBRANCH  17  19
ENDBRANCH  13  16
ENDBRANCH   8  10
ENDBRANCH   4   7
BRANCH   2  25
HETATM   25  N06   D T 401     158.296 137.934 127.145  1.00 17.51    -0.059 NA
BRANCH  25  26
HETATM   26  C05   D T 401     157.252 137.824 128.165  1.00 12.97     0.750 A 
HETATM   27  N04   D T 401     157.581 138.096 129.410  1.00 12.15    -0.057 NA
HETATM   28  C03   D T 401     156.703 138.012 130.392  1.00 11.33     0.131 A 
HETATM   29  C02   D T 401     155.405 137.623 130.096  1.00 11.26     0.096 A 
HETATM   30  C32   D T 401     155.075 137.330 128.775  1.00 14.70     0.113 A 
HETATM   31 CL01   D T 401     154.218 137.511 131.423  1.00 21.09    -0.079 Cl
HETATM   32  N31   D T 401     156.027 137.443 127.864  1.00 12.85    -0.058 NA
BRANCH  30  33
HETATM   33  C33   D T 401     153.676 136.887 128.333  1.00 15.44     0.040 A 
HETATM   34  C34   D T 401     152.716 136.244 129.099  1.00 16.40     0.101 A 
HETATM   35  N35   D T 401     151.651 136.030 128.330  1.00 15.92    -0.244 NA
HETATM   36  C36   D T 401     151.891 136.507 127.073  1.00 17.01     0.082 A 
HETATM   37  C37   D T 401     151.077 136.512 125.908  1.00 19.80     0.019 A 
HETATM   38  C41   D T 401     153.146 137.045 127.033  1.00 17.83     0.021 A 
HETATM   39  C38   D T 401     151.558 137.067 124.730  1.00 21.73     0.002 A 
HETATM   40  C39   D T 401     152.839 137.615 124.689  1.00 19.54     0.000 A 
HETATM   41  C40   D T 401     153.636 137.608 125.831  1.00 19.06     0.002 A 
ENDBRANCH  30  33
ENDBRANCH  25  26
ENDBRANCH   2  25
TORSDOF 10
ENDMDL
MODEL 4
REMARK VINA RESULT:    -7.387      3.999      6.367
REMARK INTER + INTRA:         -13.387
REMARK INTER:                 -11.978
REMARK INTRA:                  -1.409
REMARK UNBOUND:                -1.681
REMARK  10 active torsions:
REMARK  status: ('A' for Active; 'I' for Inactive)
REMARK    1  A    between atoms: C15_2  and  N16_35 
REMARK    2  A    between atoms: C17_3  and  C18_17 
REMARK       I    between atoms: C17_3  and  N16_35 
REMARK    3  A    between atoms: C20_4  and  C19_18 
REMARK    4  A    between atoms: C20_4  and  N21_36 
REMARK    5  A    between atoms: C05_10  and  N06_33 
REMARK    6  A    between atoms: C07_11  and  N06_33 
REMARK    7  A    between atoms: C09_13  and  N10_34 
REMARK    8  A    between atoms: C11_14  and  C12_15 
REMARK       I    between atoms: C11_14  and  N10_34 
REMARK    9  A    between atoms: C18_17  and  C19_18 
REMARK   10  A    between atoms: C32_23  and  C33_24 
ROOT
HETATM    1  C28   D T 401     161.112 138.254 121.477  1.00 21.18     0.019 A 
HETATM    2  C07   D T 401     163.142 139.902 122.445  1.00 19.06     0.101 A 
HETATM    3  C08   D T 401     162.091 139.523 123.271  1.00 16.94     0.039 A 
HETATM    4  C09   D T 401     161.084 138.707 122.786  1.00 21.45     0.086 A 
HETATM    5  C29   D T 401     162.160 138.629 120.644  1.00 19.78     0.003 A 
HETATM    6  C30   D T 401     163.170 139.451 121.131  1.00 21.58     0.020 A 
ENDROOT
BRANCH   4   7
HETATM    7  N10   D T 401     159.993 138.315 123.679  1.00 19.17    -0.208 NA
HETATM    8  C11   D T 401     158.840 139.184 123.900  1.00 22.26     0.279 C 
HETATM    9  O27   D T 401     158.754 140.235 123.359  1.00 26.07    -0.265 OA
BRANCH   8  10
HETATM   10  C12   D T 401     157.746 138.670 124.858  1.00 24.43     0.058 A 
HETATM   11  C13   D T 401     156.403 138.677 124.501  1.00 19.42     0.006 A 
HETATM   12  C14   D T 401     155.453 138.188 125.397  1.00 22.31     0.019 A 
HETATM   13  C15   D T 401     155.843 137.704 126.642  1.00 21.62     0.084 A 
HETATM   14  C25   D T 401     157.188 137.692 126.983  1.00 21.42     0.019 A 
HETATM   15  C26   D T 401     158.138 138.177 126.093  1.00 21.95     0.006 A 
BRANCH  13  16
HETATM   16  N16   D T 401     154.879 137.172 127.616  1.00 25.51    -0.212 NA
HETATM   17  C17   D T 401     154.276 137.920 128.721  1.00 24.13     0.256 C 
HETATM   18  O24   D T 401     154.540 139.054 128.926  1.00 25.64    -0.270 OA
BRANCH  17  19
HETATM   19  C18   D T 401     153.279 137.188 129.634  1.00 23.56     0.092 C 
BRANCH  19  20
HETATM   20  C19   D T 401     152.849 135.829 129.069  1.00 23.00     0.045 C 
BRANCH  20  21
HETATM   21  C20   D T 401     151.580 135.905 128.208  1.00 23.91     0.251 C 
BRANCH  21  22
HETATM   22  N21   D T 401     151.832 136.364 126.845  1.00 24.92     0.141 N 
HETATM   23  C22   D T 401     150.669 137.060 126.324  1.00 20.50     0.285 C 
HETATM   24  C23   D T 401     152.208 135.277 125.953  1.00 22.52     0.285 C 
ENDBRANCH  21  22
ENDBRANCH  20  21
ENDBRANCH  19  20
ENDBRANCH  17  19
ENDBRANCH  13  16
ENDBRANCH   8  10
ENDBRANCH   4   7
BRANCH   2  25
HETATM   25  N06   D T 401     164.173 140.770 123.019  1.00 17.51    -0.059 NA
BRANCH  25  26
HETATM   26  C05   D T 401     164.394 142.180 122.697  1.00 12.97     0.750 A 
HETATM   27  N04   D T 401     164.757 142.982 123.675  1.00 12.15    -0.057 NA
HETATM   28  C03   D T 401     164.968 144.269 123.472  1.00 11.33     0.131 A 
HETATM   29  C02   D T 401     164.795 144.782 122.195  1.00 11.26     0.096 A 
HETATM   30  C32   D T 401     164.402 143.922 121.173  1.00 14.70     0.113 A 
HETATM   31 CL01   D T 401     165.081 146.521 121.921  1.00 21.09    -0.079 Cl
HETATM   32  N31   D T 401     164.215 142.648 121.478  1.00 12.85    -0.058 NA
BRANCH  30  33
HETATM   33  C33   D T 401     164.177 144.377 119.727  1.00 15.44     0.040 A 
HETATM   34  C34   D T 401     165.136 144.543 118.739  1.00 16.40     0.101 A 
HETATM   35  N35   D T 401     164.520 144.962 117.635  1.00 15.92    -0.244 NA
HETATM   36  C36   D T 401     163.181 145.085 117.876  1.00 17.01     0.082 A 
HETATM   37  C37   D T 401     162.117 145.496 117.029  1.00 19.80     0.019 A 
HETATM   38  C41   D T 401     162.928 144.734 119.171  1.00 17.83     0.021 A 
HETATM   39  C38   D T 401     160.819 145.539 117.519  1.00 21.73     0.002 A 
HETATM   40  C39   D T 401     160.560 145.182 118.842  1.00 19.54     0.000 A 
HETATM   41  C40   D T 401     161.605 144.780 119.670  1.00 19.06     0.002 A 
ENDBRANCH  30  33
ENDBRANCH  25  26
ENDBRANCH   2  25
TORSDOF 10
ENDMDL
MODEL 5
REMARK VINA RESULT:    -7.354      4.369     10.463
REMARK INTER + INTRA:         -13.335
REMARK INTER:                 -11.807
REMARK INTRA:                  -1.528
REMARK UNBOUND:                -1.681
REMARK  10 active torsions:
REMARK  status: ('A' for Active; 'I' for Inactive)
REMARK    1  A    between atoms: C15_2  and  N16_35 
REMARK    2  A    between atoms: C17_3  and  C18_17 
REMARK       I    between atoms: C17_3  and  N16_35 
REMARK    3  A    between atoms: C20_4  and  C19_18 
REMARK    4  A    between atoms: C20_4  and  N21_36 
REMARK    5  A    between atoms: C05_10  and  N06_33 
REMARK    6  A    between atoms: C07_11  and  N06_33 
REMARK    7  A    between atoms: C09_13  and  N10_34 
REMARK    8  A    between atoms: C11_14  and  C12_15 
REMARK       I    between atoms: C11_14  and  N10_34 
REMARK    9  A    between atoms: C18_17  and  C19_18 
REMARK   10  A    between atoms: C32_23  and  C33_24 
ROOT
HETATM    1  C28   D T 401     158.213 140.734 125.147  1.00 21.18     0.019 A 
HETATM    2  C07   D T 401     156.337 138.755 124.567  1.00 19.06     0.101 A 
HETATM    3  C08   D T 401     157.454 138.459 125.337  1.00 16.94     0.039 A 
HETATM    4  C09   D T 401     158.385 139.443 125.622  1.00 21.45     0.086 A 
HETATM    5  C29   D T 401     157.097 141.038 124.374  1.00 19.78     0.003 A 
HETATM    6  C30   D T 401     156.165 140.047 124.088  1.00 21.58     0.020 A 
ENDROOT
BRANCH   4   7
HETATM    7  N10   D T 401     159.548 139.109 126.443  1.00 19.17    -0.208 NA
HETATM    8  C11   D T 401     159.578 139.396 127.874  1.00 22.26     0.279 C 
HETATM    9  O27   D T 401     158.656 139.909 128.414  1.00 26.07    -0.265 OA
BRANCH   8  10
HETATM   10  C12   D T 401     160.854 138.997 128.644  1.00 24.43     0.058 A 
HETATM   11  C13   D T 401     160.808 138.603 129.976  1.00 19.42     0.006 A 
HETATM   12  C14   D T 401     161.987 138.238 130.625  1.00 22.31     0.019 A 
HETATM   13  C15   D T 401     163.203 138.276 129.948  1.00 21.62     0.084 A 
HETATM   14  C25   D T 401     163.235 138.661 128.615  1.00 21.42     0.019 A 
HETATM   15  C26   D T 401     162.062 139.024 127.966  1.00 21.95     0.006 A 
BRANCH  13  16
HETATM   16  N16   D T 401     164.471 137.893 130.587  1.00 25.51    -0.212 NA
HETATM   17  C17   D T 401     165.002 136.532 130.688  1.00 24.13     0.256 C 
HETATM   18  O24   D T 401     164.421 135.600 130.254  1.00 25.64    -0.270 OA
BRANCH  17  19
HETATM   19  C18   D T 401     166.354 136.332 131.392  1.00 23.56     0.092 C 
BRANCH  19  20
HETATM   20  C19   D T 401     166.219 135.604 132.735  1.00 23.00     0.045 C 
BRANCH  20  21
HETATM   21  C20   D T 401     165.700 136.506 133.864  1.00 23.91     0.251 C 
BRANCH  21  22
HETATM   22  N21   D T 401     164.444 136.041 134.447  1.00 24.92     0.141 N 
HETATM   23  C22   D T 401     164.352 134.595 134.358  1.00 20.50     0.285 C 
HETATM   24  C23   D T 401     163.282 136.658 133.826  1.00 22.52     0.285 C 
ENDBRANCH  21  22
ENDBRANCH  20  21
ENDBRANCH  19  20
ENDBRANCH  17  19
ENDBRANCH  13  16
ENDBRANCH   8  10
ENDBRANCH   4   7
BRANCH   2  25
HETATM   25  N06   D T 401     155.394 137.666 124.300  1.00 17.51    -0.059 NA
BRANCH  25  26
HETATM   26  C05   D T 401     154.174 137.375 125.053  1.00 12.97     0.750 A 
HETATM   27  N04   D T 401     153.040 137.322 124.387  1.00 12.15    -0.057 NA
HETATM   28  C03   D T 401     151.893 137.074 124.992  1.00 11.33     0.131 A 
HETATM   29  C02   D T 401     151.891 136.871 126.364  1.00 11.26     0.096 A 
HETATM   30  C32   D T 401     153.098 136.939 127.056  1.00 14.70     0.113 A 
HETATM   31 CL01   D T 401     150.341 136.535 127.181  1.00 21.09    -0.079 Cl
HETATM   32  N31   D T 401     154.193 137.194 126.359  1.00 12.85    -0.058 NA
BRANCH  30  33
HETATM   33  C33   D T 401     153.215 136.736 128.570  1.00 15.44     0.040 A 
HETATM   34  C34   D T 401     152.566 135.786 129.344  1.00 16.40     0.101 A 
HETATM   35  N35   D T 401     152.938 135.963 130.610  1.00 15.92    -0.244 NA
HETATM   36  C36   D T 401     153.807 137.013 130.690  1.00 17.01     0.082 A 
HETATM   37  C37   D T 401     154.472 137.588 131.805  1.00 19.80     0.019 A 
HETATM   38  C41   D T 401     154.002 137.525 129.438  1.00 17.83     0.021 A 
HETATM   39  C38   D T 401     155.321 138.671 131.623  1.00 21.73     0.002 A 
HETATM   40  C39   D T 401     155.519 139.195 130.346  1.00 19.54     0.000 A 
HETATM   41  C40   D T 401     154.866 138.630 129.254  1.00 19.06     0.002 A 
ENDBRANCH  30  33
ENDBRANCH  25  26
ENDBRANCH   2  25
TORSDOF 10
ENDMDL
MODEL 6
REMARK VINA RESULT:    -7.303      4.687      7.376
REMARK INTER + INTRA:         -13.254
REMARK INTER:                 -11.920
REMARK INTRA:                  -1.334
REMARK UNBOUND:                -1.681
REMARK  10 active torsions:
REMARK  status: ('A' for Active; 'I' for Inactive)
REMARK    1  A    between atoms: C15_2  and  N16_35 
REMARK    2  A    between atoms: C17_3  and  C18_17 
REMARK       I    between atoms: C17_3  and  N16_35 
REMARK    3  A    between atoms: C20_4  and  C19_18 
REMARK    4  A    between atoms: C20_4  and  N21_36 
REMARK    5  A    between atoms: C05_10  and  N06_33 
REMARK    6  A    between atoms: C07_11  and  N06_33 
REMARK    7  A    between atoms: C09_13  and  N10_34 
REMARK    8  A    between atoms: C11_14  and  C12_15 
REMARK       I    between atoms: C11_14  and  N10_34 
REMARK    9  A    between atoms: C18_17  and  C19_18 
REMARK   10  A    between atoms: C32_23  and  C33_24 
ROOT
HETATM    1  C28   D T 401     161.959 138.022 121.069  1.00 21.18     0.019 A 
HETATM    2  C07   D T 401     163.970 139.946 120.907  1.00 19.06     0.101 A 
HETATM    3  C08   D T 401     163.010 140.016 121.909  1.00 16.94     0.039 A 
HETATM    4  C09   D T 401     162.012 139.060 121.985  1.00 21.45     0.086 A 
HETATM    5  C29   D T 401     162.916 137.944 120.063  1.00 19.78     0.003 A 
HETATM    6  C30   D T 401     163.916 138.906 119.987  1.00 21.58     0.020 A 
ENDROOT
BRANCH   4   7
HETATM    7  N10   D T 401     161.017 139.152 123.055  1.00 19.17    -0.208 NA
HETATM    8  C11   D T 401     159.587 139.073 122.773  1.00 22.26     0.279 C 
HETATM    9  O27   D T 401     159.188 138.930 121.667  1.00 26.07    -0.265 OA
BRANCH   8  10
HETATM   10  C12   D T 401     158.628 139.177 123.977  1.00 24.43     0.058 A 
HETATM   11  C13   D T 401     158.195 140.405 124.461  1.00 19.42     0.006 A 
HETATM   12  C14   D T 401     157.317 140.446 125.543  1.00 22.31     0.019 A 
HETATM   13  C15   D T 401     156.883 139.267 126.142  1.00 21.62     0.084 A 
HETATM   14  C25   D T 401     157.315 138.046 125.645  1.00 21.42     0.019 A 
HETATM   15  C26   D T 401     158.189 138.001 124.566  1.00 21.95     0.006 A 
BRANCH  13  16
HETATM   16  N16   D T 401     155.952 139.260 127.280  1.00 25.51    -0.212 NA
HETATM   17  C17   D T 401     156.319 139.066 128.684  1.00 24.13     0.256 C 
HETATM   18  O24   D T 401     157.437 138.884 129.020  1.00 25.64    -0.270 OA
BRANCH  17  19
HETATM   19  C18   D T 401     155.199 139.097 129.737  1.00 23.56     0.092 C 
BRANCH  19  20
HETATM   20  C19   D T 401     153.799 139.048 129.112  1.00 23.00     0.045 C 
BRANCH  20  21
HETATM   21  C20   D T 401     153.119 137.679 129.256  1.00 23.91     0.251 C 
BRANCH  21  22
HETATM   22  N21   D T 401     153.357 136.791 128.122  1.00 24.92     0.141 N 
HETATM   23  C22   D T 401     152.944 137.430 126.885  1.00 20.50     0.285 C 
HETATM   24  C23   D T 401     152.689 135.507 128.272  1.00 22.52     0.285 C 
ENDBRANCH  21  22
ENDBRANCH  20  21
ENDBRANCH  19  20
ENDBRANCH  17  19
ENDBRANCH  13  16
ENDBRANCH   8  10
ENDBRANCH   4   7
BRANCH   2  25
HETATM   25  N06   D T 401     164.996 140.991 120.881  1.00 17.51    -0.059 NA
BRANCH  25  26
HETATM   26  C05   D T 401     164.773 142.415 120.632  1.00 12.97     0.750 A 
HETATM   27  N04   D T 401     165.198 143.270 121.539  1.00 12.15    -0.057 NA
HETATM   28  C03   D T 401     165.028 144.571 121.397  1.00 11.33     0.131 A 
HETATM   29  C02   D T 401     164.383 145.041 120.262  1.00 11.26     0.096 A 
HETATM   30  C32   D T 401     163.932 144.124 119.316  1.00 14.70     0.113 A 
HETATM   31 CL01   D T 401     164.156 146.800 120.070  1.00 21.09    -0.079 Cl
HETATM   32  N31   D T 401     164.150 142.840 119.552  1.00 12.85    -0.058 NA
BRANCH  30  33
HETATM   33  C33   D T 401     163.205 144.528 118.030  1.00 15.44     0.040 A 
HETATM   34  C34   D T 401     163.733 144.591 116.749  1.00 16.40     0.101 A 
HETATM   35  N35   D T 401     162.768 144.998 115.927  1.00 15.92    -0.244 NA
HETATM   36  C36   D T 401     161.621 145.213 116.636  1.00 17.01     0.082 A 
HETATM   37  C37   D T 401     160.336 145.651 116.218  1.00 19.80     0.019 A 
HETATM   38  C41   D T 401     161.854 144.936 117.954  1.00 17.83     0.021 A 
HETATM   39  C38   D T 401     159.316 145.795 117.149  1.00 21.73     0.002 A 
HETATM   40  C39   D T 401     159.554 145.513 118.493  1.00 19.54     0.000 A 
HETATM   41  C40   D T 401     160.814 145.085 118.902  1.00 19.06     0.002 A 
ENDBRANCH  30  33
ENDBRANCH  25  26
ENDBRANCH   2  25
TORSDOF 10
ENDMDL
MODEL 7
REMARK VINA RESULT:    -7.231      3.628      5.452
REMARK INTER + INTRA:         -13.138
REMARK INTER:                 -12.078
REMARK INTRA:                  -1.060
REMARK UNBOUND:                -1.681
REMARK  10 active torsions:
REMARK  status: ('A' for Active; 'I' for Inactive)
REMARK    1  A    between atoms: C15_2  and  N16_35 
REMARK    2  A    between atoms: C17_3  and  C18_17 
REMARK       I    between atoms: C17_3  and  N16_35 
REMARK    3  A    between atoms: C20_4  and  C19_18 
REMARK    4  A    between atoms: C20_4  and  N21_36 
REMARK    5  A    between atoms: C05_10  and  N06_33 
REMARK    6  A    between atoms: C07_11  and  N06_33 
REMARK    7  A    between atoms: C09_13  and  N10_34 
REMARK    8  A    between atoms: C11_14  and  C12_15 
REMARK       I    between atoms: C11_14  and  N10_34 
REMARK    9  A    between atoms: C18_17  and  C19_18 
REMARK   10  A    between atoms: C32_23  and  C33_24 
ROOT
HETATM    1  C28   D T 401     161.670 141.727 130.367  1.00 21.18     0.019 A 
HETATM    2  C07   D T 401     164.014 140.480 129.514  1.00 19.06     0.101 A 
HETATM    3  C08   D T 401     162.799 140.181 128.909  1.00 16.94     0.039 A 
HETATM    4  C09   D T 401     161.638 140.800 129.337  1.00 21.45     0.086 A 
HETATM    5  C29   D T 401     162.882 142.032 130.977  1.00 19.78     0.003 A 
HETATM    6  C30   D T 401     164.047 141.407 130.548  1.00 21.58     0.020 A 
ENDROOT
BRANCH   4   7
HETATM    7  N10   D T 401     160.372 140.474 128.678  1.00 19.17    -0.208 NA
HETATM    8  C11   D T 401     159.721 139.183 128.877  1.00 22.26     0.279 C 
HETATM    9  O27   D T 401     160.199 138.359 129.582  1.00 26.07    -0.265 OA
BRANCH   8  10
HETATM   10  C12   D T 401     158.388 138.948 128.136  1.00 24.43     0.058 A 
HETATM   11  C13   D T 401     157.929 139.828 127.165  1.00 19.42     0.006 A 
HETATM   12  C14   D T 401     156.724 139.565 126.514  1.00 22.31     0.019 A 
HETATM   13  C15   D T 401     155.982 138.433 126.839  1.00 21.62     0.084 A 
HETATM   14  C25   D T 401     156.455 137.556 127.804  1.00 21.42     0.019 A 
HETATM   15  C26   D T 401     157.655 137.815 128.454  1.00 21.95     0.006 A 
BRANCH  13  16
HETATM   16  N16   D T 401     154.710 138.110 126.175  1.00 25.51    -0.212 NA
HETATM   17  C17   D T 401     154.565 137.542 124.834  1.00 24.13     0.256 C 
HETATM   18  O24   D T 401     155.500 137.301 124.152  1.00 25.64    -0.270 OA
BRANCH  17  19
HETATM   19  C18   D T 401     153.146 137.266 124.312  1.00 23.56     0.092 C 
BRANCH  19  20
HETATM   20  C19   D T 401     152.125 137.088 125.443  1.00 23.00     0.045 C 
BRANCH  20  21
HETATM   21  C20   D T 401     152.221 135.721 126.136  1.00 23.91     0.251 C 
BRANCH  21  22
HETATM   22  N21   D T 401     151.594 135.694 127.455  1.00 24.92     0.141 N 
HETATM   23  C22   D T 401     150.477 136.620 127.501  1.00 20.50     0.285 C 
HETATM   24  C23   D T 401     152.536 135.991 128.524  1.00 22.52     0.285 C 
ENDBRANCH  21  22
ENDBRANCH  20  21
ENDBRANCH  19  20
ENDBRANCH  17  19
ENDBRANCH  13  16
ENDBRANCH   8  10
ENDBRANCH   4   7
BRANCH   2  25
HETATM   25  N06   D T 401     165.204 139.787 129.016  1.00 17.51    -0.059 NA
BRANCH  25  26
HETATM   26  C05   D T 401     165.327 138.351 128.764  1.00 12.97     0.750 A 
HETATM   27  N04   D T 401     165.317 137.945 127.512  1.00 12.15    -0.057 NA
HETATM   28  C03   D T 401     165.413 136.667 127.198  1.00 11.33     0.131 A 
HETATM   29  C02   D T 401     165.522 135.734 128.219  1.00 11.26     0.096 A 
HETATM   30  C32   D T 401     165.522 136.179 129.539  1.00 14.70     0.113 A 
HETATM   31 CL01   D T 401     165.653 134.007 127.794  1.00 21.09    -0.079 Cl
HETATM   32  N31   D T 401     165.420 137.480 129.750  1.00 12.85    -0.058 NA
BRANCH  30  33
HETATM   33  C33   D T 401     165.634 135.240 130.745  1.00 15.44     0.040 A 
HETATM   34  C34   D T 401     166.417 134.102 130.855  1.00 16.40     0.101 A 
HETATM   35  N35   D T 401     166.209 133.575 132.060  1.00 15.92    -0.244 NA
HETATM   36  C36   D T 401     165.300 134.333 132.741  1.00 17.01     0.082 A 
HETATM   37  C37   D T 401     164.754 134.184 134.044  1.00 19.80     0.019 A 
HETATM   38  C41   D T 401     164.912 135.379 131.952  1.00 17.83     0.021 A 
HETATM   39  C38   D T 401     163.828 135.104 134.516  1.00 21.73     0.002 A 
HETATM   40  C39   D T 401     163.431 136.171 133.711  1.00 19.54     0.000 A 
HETATM   41  C40   D T 401     163.967 136.314 132.433  1.00 19.06     0.002 A 
ENDBRANCH  30  33
ENDBRANCH  25  26
ENDBRANCH   2  25
TORSDOF 10
ENDMDL
MODEL 8
REMARK VINA RESULT:    -7.212      2.104      5.321
REMARK INTER + INTRA:         -13.109
REMARK INTER:                 -11.918
REMARK INTRA:                  -1.191
REMARK UNBOUND:                -1.681
REMARK  10 active torsions:
REMARK  status: ('A' for Active; 'I' for Inactive)
REMARK    1  A    between atoms: C15_2  and  N16_35 
REMARK    2  A    between atoms: C17_3  and  C18_17 
REMARK       I    between atoms: C17_3  and  N16_35 
REMARK    3  A    between atoms: C20_4  and  C19_18 
REMARK    4  A    between atoms: C20_4  and  N21_36 
REMARK    5  A    between atoms: C05_10  and  N06_33 
REMARK    6  A    between atoms: C07_11  and  N06_33 
REMARK    7  A    between atoms: C09_13  and  N10_34 
REMARK    8  A    between atoms: C11_14  and  C12_15 
REMARK       I    between atoms: C11_14  and  N10_34 
REMARK    9  A    between atoms: C18_17  and  C19_18 
REMARK   10  A    between atoms: C32_23  and  C33_24 
ROOT
HETATM    1  C28   D T 401     161.853 141.765 130.381  1.00 21.18     0.019 A 
HETATM    2  C07   D T 401     164.075 140.435 129.348  1.00 19.06     0.101 A 
HETATM    3  C08   D T 401     162.803 140.160 128.862  1.00 16.94     0.039 A 
HETATM    4  C09   D T 401     161.702 140.821 129.378  1.00 21.45     0.086 A 
HETATM    5  C29   D T 401     163.122 142.046 130.874  1.00 19.78     0.003 A 
HETATM    6  C30   D T 401     164.227 141.380 130.355  1.00 21.58     0.020 A 
ENDROOT
BRANCH   4   7
HETATM    7  N10   D T 401     160.374 140.519 128.843  1.00 19.17    -0.208 NA
HETATM    8  C11   D T 401     159.755 139.211 129.033  1.00 22.26     0.279 C 
HETATM    9  O27   D T 401     160.311 138.353 129.631  1.00 26.07    -0.265 OA
BRANCH   8  10
HETATM   10  C12   D T 401     158.350 139.004 128.429  1.00 24.43     0.058 A 
HETATM   11  C13   D T 401     157.980 139.593 127.227  1.00 19.42     0.006 A 
HETATM   12  C14   D T 401     156.703 139.365 126.715  1.00 22.31     0.019 A 
HETATM   13  C15   D T 401     155.802 138.561 127.406  1.00 21.62     0.084 A 
HETATM   14  C25   D T 401     156.186 137.970 128.602  1.00 21.42     0.019 A 
HETATM   15  C26   D T 401     157.458 138.194 129.114  1.00 21.95     0.006 A 
BRANCH  13  16
HETATM   16  N16   D T 401     154.448 138.285 126.903  1.00 25.51    -0.212 NA
HETATM   17  C17   D T 401     154.118 137.450 125.747  1.00 24.13     0.256 C 
HETATM   18  O24   D T 401     154.952 136.922 125.097  1.00 25.64    -0.270 OA
BRANCH  17  19
HETATM   19  C18   D T 401     152.636 137.276 125.377  1.00 23.56     0.092 C 
BRANCH  19  20
HETATM   20  C19   D T 401     152.147 135.834 125.563  1.00 23.00     0.045 C 
BRANCH  20  21
HETATM   21  C20   D T 401     152.594 135.209 126.893  1.00 23.91     0.251 C 
BRANCH  21  22
HETATM   22  N21   D T 401     151.778 135.621 128.031  1.00 24.92     0.141 N 
HETATM   23  C22   D T 401     150.685 136.468 127.587  1.00 20.50     0.285 C 
HETATM   24  C23   D T 401     152.556 136.302 129.055  1.00 22.52     0.285 C 
ENDBRANCH  21  22
ENDBRANCH  20  21
ENDBRANCH  19  20
ENDBRANCH  17  19
ENDBRANCH  13  16
ENDBRANCH   8  10
ENDBRANCH   4   7
BRANCH   2  25
HETATM   25  N06   D T 401     165.196 139.699 128.761  1.00 17.51    -0.059 NA
BRANCH  25  26
HETATM   26  C05   D T 401     165.115 138.723 127.673  1.00 12.97     0.750 A 
HETATM   27  N04   D T 401     165.202 137.448 127.985  1.00 12.15    -0.057 NA
HETATM   28  C03   D T 401     165.148 136.505 127.063  1.00 11.33     0.131 A 
HETATM   29  C02   D T 401     165.000 136.876 125.735  1.00 11.26     0.096 A 
HETATM   30  C32   D T 401     164.917 138.230 125.420  1.00 14.70     0.113 A 
HETATM   31 CL01   D T 401     164.925 135.600 124.490  1.00 21.09    -0.079 Cl
HETATM   32  N31   D T 401     164.983 139.098 126.416  1.00 12.85    -0.058 NA
BRANCH  30  33
HETATM   33  C33   D T 401     164.756 138.755 123.989  1.00 15.44     0.040 A 
HETATM   34  C34   D T 401     165.745 139.273 123.167  1.00 16.40     0.101 A 
HETATM   35  N35   D T 401     165.179 139.623 122.014  1.00 15.92    -0.244 NA
HETATM   36  C36   D T 401     163.840 139.357 122.061  1.00 17.01     0.082 A 
HETATM   37  C37   D T 401     162.818 139.553 121.095  1.00 19.80     0.019 A 
HETATM   38  C41   D T 401     163.536 138.819 123.279  1.00 17.83     0.021 A 
HETATM   39  C38   D T 401     161.509 139.196 121.388  1.00 21.73     0.002 A 
HETATM   40  C39   D T 401     161.198 138.648 122.632  1.00 19.54     0.000 A 
HETATM   41  C40   D T 401     162.201 138.458 123.579  1.00 19.06     0.002 A 
ENDBRANCH  30  33
ENDBRANCH  25  26
ENDBRANCH   2  25
TORSDOF 10
ENDMDL
MODEL 9
REMARK VINA RESULT:    -6.849      3.435      6.175
REMARK INTER + INTRA:         -12.534
REMARK INTER:                 -12.243
REMARK INTRA:                  -0.291
REMARK UNBOUND:                -1.681
REMARK  10 active torsions:
REMARK  status: ('A' for Active; 'I' for Inactive)
REMARK    1  A    between atoms: C15_2  and  N16_35 
REMARK    2  A    between atoms: C17_3  and  C18_17 
REMARK       I    between atoms: C17_3  and  N16_35 
REMARK    3  A    between atoms: C20_4  and  C19_18 
REMARK    4  A    between atoms: C20_4  and  N21_36 
REMARK    5  A    between atoms: C05_10  and  N06_33 
REMARK    6  A    between atoms: C07_11  and  N06_33 
REMARK    7  A    between atoms: C09_13  and  N10_34 
REMARK    8  A    between atoms: C11_14  and  C12_15 
REMARK       I    between atoms: C11_14  and  N10_34 
REMARK    9  A    between atoms: C18_17  and  C19_18 
REMARK   10  A    between atoms: C32_23  and  C33_24 
ROOT
HETATM    1  C28   D T 401     162.225 142.611 130.401  1.00 21.18     0.019 A 
HETATM    2  C07   D T 401     164.238 140.704 130.689  1.00 19.06     0.101 A 
HETATM    3  C08   D T 401     162.997 140.343 130.181  1.00 16.94     0.039 A 
HETATM    4  C09   D T 401     161.999 141.292 130.042  1.00 21.45     0.086 A 
HETATM    5  C29   D T 401     163.465 142.980 130.911  1.00 19.78     0.003 A 
HETATM    6  C30   D T 401     164.465 142.025 131.052  1.00 21.58     0.020 A 
ENDROOT
BRANCH   4   7
HETATM    7  N10   D T 401     160.702 140.888 129.496  1.00 19.17    -0.208 NA
HETATM    8  C11   D T 401     160.601 139.898 128.427  1.00 22.26     0.279 C 
HETATM    9  O27   D T 401     161.570 139.389 127.972  1.00 26.07    -0.265 OA
BRANCH   8  10
HETATM   10  C12   D T 401     159.184 139.544 127.931  1.00 24.43     0.058 A 
HETATM   11  C13   D T 401     158.100 139.491 128.798  1.00 19.42     0.006 A 
HETATM   12  C14   D T 401     156.836 139.180 128.298  1.00 22.31     0.019 A 
HETATM   13  C15   D T 401     156.661 138.915 126.943  1.00 21.62     0.084 A 
HETATM   14  C25   D T 401     157.749 138.980 126.084  1.00 21.42     0.019 A 
HETATM   15  C26   D T 401     159.010 139.291 126.579  1.00 21.95     0.006 A 
BRANCH  13  16
HETATM   16  N16   D T 401     155.347 138.590 126.368  1.00 25.51    -0.212 NA
HETATM   17  C17   D T 401     155.103 137.665 125.260  1.00 24.13     0.256 C 
HETATM   18  O24   D T 401     155.983 137.094 124.715  1.00 25.64    -0.270 OA
BRANCH  17  19
HETATM   19  C18   D T 401     153.651 137.449 124.802  1.00 23.56     0.092 C 
BRANCH  19  20
HETATM   20  C19   D T 401     152.710 137.108 125.963  1.00 23.00     0.045 C 
BRANCH  20  21
HETATM   21  C20   D T 401     153.220 135.953 126.838  1.00 23.91     0.251 C 
BRANCH  21  22
HETATM   22  N21   D T 401     152.347 135.653 127.968  1.00 24.92     0.141 N 
HETATM   23  C22   D T 401     151.021 136.199 127.741  1.00 20.50     0.285 C 
HETATM   24  C23   D T 401     152.882 136.142 129.230  1.00 22.52     0.285 C 
ENDBRANCH  21  22
ENDBRANCH  20  21
ENDBRANCH  19  20
ENDBRANCH  17  19
ENDBRANCH  13  16
ENDBRANCH   8  10
ENDBRANCH   4   7
BRANCH   2  25
HETATM   25  N06   D T 401     165.248 139.651 130.815  1.00 17.51    -0.059 NA
BRANCH  25  26
HETATM   26  C05   D T 401     165.005 138.260 131.201  1.00 12.97     0.750 A 
HETATM   27  N04   D T 401     164.288 138.042 132.283  1.00 12.15    -0.057 NA
HETATM   28  C03   D T 401     164.030 136.819 132.707  1.00 11.33     0.131 A 
HETATM   29  C02   D T 401     164.534 135.742 131.990  1.00 11.26     0.096 A 
HETATM   30  C32   D T 401     165.298 135.991 130.853  1.00 14.70     0.113 A 
HETATM   31 CL01   D T 401     164.184 134.090 132.562  1.00 21.09    -0.079 Cl
HETATM   32  N31   D T 401     165.501 137.253 130.511  1.00 12.85    -0.058 NA
BRANCH  30  33
HETATM   33  C33   D T 401     165.907 134.883 129.987  1.00 15.44     0.040 A 
HETATM   34  C34   D T 401     166.792 133.893 130.388  1.00 16.40     0.101 A 
HETATM   35  N35   D T 401     167.081 133.145 129.325  1.00 15.92    -0.244 NA
HETATM   36  C36   D T 401     166.416 133.625 128.233  1.00 17.01     0.082 A 
HETATM   37  C37   D T 401     166.400 133.180 126.884  1.00 19.80     0.019 A 
HETATM   38  C41   D T 401     165.677 134.712 128.603  1.00 17.83     0.021 A 
HETATM   39  C38   D T 401     165.630 133.850 125.943  1.00 21.73     0.002 A 
HETATM   40  C39   D T 401     164.876 134.960 126.321  1.00 19.54     0.000 A 
HETATM   41  C40   D T 401     164.894 135.396 127.643  1.00 19.06     0.002 A 
ENDBRANCH  30  33
ENDBRANCH  25  26
ENDBRANCH   2  25
TORSDOF 10
ENDMDL
