MODEL 1
REMARK VINA RESULT:      -8.3      0.000      0.000
REMARK  10 active torsions:
REMARK  status: ('A' for Active; 'I' for Inactive)
REMARK    1  A    between atoms: C15_2  and  N16_35 
REMARK    2  A    between atoms: C17_3  and  C18_17 
REMARK       I    between atoms: C17_3  and  N16_35 
REMARK    3  A    between atoms: C20_4  and  C19_18 
REMARK    4  A    between atoms: C20_4  and  N21_36 
REMARK    5  A    between atoms: C05_10  and  N06_33 
REMARK    6  A    between atoms: C07_11  and  N06_33 
REMARK    7  A    between atoms: C09_13  and  N10_34 
REMARK    8  A    between atoms: C11_14  and  C12_15 
REMARK       I    between atoms: C11_14  and  N10_34 
REMARK    9  A    between atoms: C18_17  and  C19_18 
REMARK   10  A    between atoms: C32_23  and  C33_24 
ROOT
HETATM    1  C28   D T 401     161.293 139.116 121.461  1.00 21.18     0.019 A 
HETATM    2  C07   D T 401     163.580 138.783 123.022  1.00 19.06     0.101 A 
HETATM    3  C08   D T 401     162.334 138.414 123.514  1.00 16.94     0.039 A 
HETATM    4  C09   D T 401     161.201 138.583 122.737  1.00 21.45     0.086 A 
HETATM    5  C29   D T 401     162.537 139.488 120.962  1.00 19.78     0.003 A 
HETATM    6  C30   D T 401     163.673 139.320 121.744  1.00 21.58     0.020 A 
ENDROOT
BRANCH   4   7
HETATM    7  N10   D T 401     159.901 138.178 123.275  1.00 19.17    -0.208 NA
HETATM    8  C11   D T 401     158.934 139.162 123.750  1.00 22.26     0.279 C 
HETATM    9  O27   D T 401     159.173 140.322 123.712  1.00 26.07    -0.265 OA
BRANCH   8  10
HETATM   10  C12   D T 401     157.594 138.624 124.293  1.00 24.43     0.058 A 
HETATM   11  C13   D T 401     156.653 138.035 123.457  1.00 19.42     0.006 A 
HETATM   12  C14   D T 401     155.462 137.551 123.998  1.00 22.31     0.019 A 
HETATM   13  C15   D T 401     155.212 137.664 125.362  1.00 21.62     0.084 A 
HETATM   14  C25   D T 401     156.163 138.245 126.189  1.00 21.42     0.019 A 
HETATM   15  C26   D T 401     157.351 138.727 125.653  1.00 21.95     0.006 A 
BRANCH  13  16
HETATM   16  N16   D T 401     153.975 137.162 125.979  1.00 25.51    -0.212 NA
HETATM   17  C17   D T 401     152.667 137.078 125.327  1.00 24.13     0.256 C 
HETATM   18  O24   D T 401     152.499 137.431 124.212  1.00 25.64    -0.270 OA
BRANCH  17  19
HETATM   19  C18   D T 401     151.487 136.517 126.138  1.00 23.56     0.092 C 
BRANCH  19  20
HETATM   20  C19   D T 401     151.936 135.552 127.242  1.00 23.00     0.045 C 
BRANCH  20  21
HETATM   21  C20   D T 401     151.846 136.158 128.650  1.00 23.91     0.251 C 
BRANCH  21  22
HETATM   22  N21   D T 401     153.123 136.659 129.149  1.00 24.92     0.141 N 
HETATM   23  C22   D T 401     153.473 135.997 130.393  1.00 20.50     0.285 C 
HETATM   24  C23   D T 401     153.121 138.102 129.331  1.00 22.52     0.285 C 
ENDBRANCH  21  22
ENDBRANCH  20  21
ENDBRANCH  19  20
ENDBRANCH  17  19
ENDBRANCH  13  16
ENDBRANCH   8  10
ENDBRANCH   4   7
BRANCH   2  25
HETATM   25  N06   D T 401     164.737 138.582 123.896  1.00 17.51    -0.059 NA
BRANCH  25  26
HETATM   26  C05   D T 401     164.698 138.210 125.311  1.00 12.97     0.750 A 
HETATM   27  N04   D T 401     164.770 136.931 125.611  1.00 12.15    -0.057 NA
HETATM   28  C03   D T 401     164.732 136.511 126.861  1.00 11.33     0.131 A 
HETATM   29  C02   D T 401     164.610 137.446 127.878  1.00 11.26     0.096 A 
HETATM   30  C32   D T 401     164.526 138.796 127.544  1.00 14.70     0.113 A 
HETATM   31 CL01   D T 401     164.560 136.877 129.568  1.00 21.09    -0.079 Cl
HETATM   32  N31   D T 401     164.572 139.116 126.261  1.00 12.85    -0.058 NA
BRANCH  30  33
HETATM   33  C33   D T 401     164.385 139.914 128.581  1.00 15.44     0.040 A 
HETATM   34  C34   D T 401     165.403 140.563 129.262  1.00 16.40     0.101 A 
HETATM   35  N35   D T 401     164.847 141.458 130.077  1.00 15.92    -0.244 NA
HETATM   36  C36   D T 401     163.488 141.406 129.956  1.00 17.01     0.082 A 
HETATM   37  C37   D T 401     162.466 142.148 130.607  1.00 19.80     0.019 A 
HETATM   38  C41   D T 401     163.159 140.452 129.036  1.00 17.83     0.021 A 
HETATM   39  C38   D T 401     161.134 141.904 130.306  1.00 21.73     0.002 A 
HETATM   40  C39   D T 401     160.798 140.929 129.368  1.00 19.54     0.000 A 
HETATM   41  C40   D T 401     161.800 140.202 128.731  1.00 19.06     0.002 A 
ENDBRANCH  30  33
ENDBRANCH  25  26
ENDBRANCH   2  25
TORSDOF 10
ENDMDL
MODEL 2
REMARK VINA RESULT:      -8.0      1.357      1.874
REMARK  10 active torsions:
REMARK  status: ('A' for Active; 'I' for Inactive)
REMARK    1  A    between atoms: C15_2  and  N16_35 
REMARK    2  A    between atoms: C17_3  and  C18_17 
REMARK       I    between atoms: C17_3  and  N16_35 
REMARK    3  A    between atoms: C20_4  and  C19_18 
REMARK    4  A    between atoms: C20_4  and  N21_36 
REMARK    5  A    between atoms: C05_10  and  N06_33 
REMARK    6  A    between atoms: C07_11  and  N06_33 
REMARK    7  A    between atoms: C09_13  and  N10_34 
REMARK    8  A    between atoms: C11_14  and  C12_15 
REMARK       I    between atoms: C11_14  and  N10_34 
REMARK    9  A    between atoms: C18_17  and  C19_18 
REMARK   10  A    between atoms: C32_23  and  C33_24 
ROOT
HETATM    1  C28   D T 401     161.077 138.527 121.584  1.00 21.18     0.019 A 
HETATM    2  C07   D T 401     163.408 139.418 122.827  1.00 19.06     0.101 A 
HETATM    3  C08   D T 401     162.300 139.062 123.586  1.00 16.94     0.039 A 
HETATM    4  C09   D T 401     161.143 138.623 122.965  1.00 21.45     0.086 A 
HETATM    5  C29   D T 401     162.182 138.882 120.818  1.00 19.78     0.003 A 
HETATM    6  C30   D T 401     163.341 139.325 121.443  1.00 21.58     0.020 A 
ENDROOT
BRANCH   4   7
HETATM    7  N10   D T 401     159.993 138.245 123.787  1.00 19.17    -0.208 NA
HETATM    8  C11   D T 401     158.874 139.159 123.996  1.00 22.26     0.279 C 
HETATM    9  O27   D T 401     158.864 140.236 123.501  1.00 26.07    -0.265 OA
BRANCH   8  10
HETATM   10  C12   D T 401     157.711 138.657 124.876  1.00 24.43     0.058 A 
HETATM   11  C13   D T 401     156.386 138.798 124.484  1.00 19.42     0.006 A 
HETATM   12  C14   D T 401     155.370 138.315 125.309  1.00 22.31     0.019 A 
HETATM   13  C15   D T 401     155.680 137.703 126.520  1.00 21.62     0.084 A 
HETATM   14  C25   D T 401     157.007 137.559 126.897  1.00 21.42     0.019 A 
HETATM   15  C26   D T 401     158.021 138.038 126.077  1.00 21.95     0.006 A 
BRANCH  13  16
HETATM   16  N16   D T 401     154.645 137.172 127.420  1.00 25.51    -0.212 NA
HETATM   17  C17   D T 401     153.956 137.923 128.470  1.00 24.13     0.256 C 
HETATM   18  O24   D T 401     154.198 139.059 128.689  1.00 25.64    -0.270 OA
BRANCH  17  19
HETATM   19  C18   D T 401     152.894 137.192 129.308  1.00 23.56     0.092 C 
BRANCH  19  20
HETATM   20  C19   D T 401     152.258 136.015 128.557  1.00 23.00     0.045 C 
BRANCH  20  21
HETATM   21  C20   D T 401     151.115 136.437 127.624  1.00 23.91     0.251 C 
BRANCH  21  22
HETATM   22  N21   D T 401     151.334 136.060 126.231  1.00 24.92     0.141 N 
HETATM   23  C22   D T 401     152.358 135.033 126.141  1.00 20.50     0.285 C 
HETATM   24  C23   D T 401     151.689 137.197 125.396  1.00 22.52     0.285 C 
ENDBRANCH  21  22
ENDBRANCH  20  21
ENDBRANCH  19  20
ENDBRANCH  17  19
ENDBRANCH  13  16
ENDBRANCH   8  10
ENDBRANCH   4   7
BRANCH   2  25
HETATM   25  N06   D T 401     164.598 139.878 123.546  1.00 17.51    -0.059 NA
BRANCH  25  26
HETATM   26  C05   D T 401     165.051 139.411 124.857  1.00 12.97     0.750 A 
HETATM   27  N04   D T 401     165.659 138.246 124.917  1.00 12.15    -0.057 NA
HETATM   28  C03   D T 401     166.090 137.748 126.060  1.00 11.33     0.131 A 
HETATM   29  C02   D T 401     165.890 138.476 127.225  1.00 11.26     0.096 A 
HETATM   30  C32   D T 401     165.237 139.703 127.146  1.00 14.70     0.113 A 
HETATM   31 CL01   D T 401     166.474 137.803 128.770  1.00 21.09    -0.079 Cl
HETATM   32  N31   D T 401     164.843 140.115 125.952  1.00 12.85    -0.058 NA
BRANCH  30  33
HETATM   33  C33   D T 401     164.958 140.590 128.364  1.00 15.44     0.040 A 
HETATM   34  C34   D T 401     165.877 141.327 129.096  1.00 16.40     0.101 A 
HETATM   35  N35   D T 401     165.221 141.943 130.077  1.00 15.92    -0.244 NA
HETATM   36  C36   D T 401     163.895 141.622 130.015  1.00 17.01     0.082 A 
HETATM   37  C37   D T 401     162.802 142.017 130.831  1.00 19.80     0.019 A 
HETATM   38  C41   D T 401     163.691 140.775 128.962  1.00 17.83     0.021 A 
HETATM   39  C38   D T 401     161.526 141.544 130.557  1.00 21.73     0.002 A 
HETATM   40  C39   D T 401     161.318 140.678 129.484  1.00 19.54     0.000 A 
HETATM   41  C40   D T 401     162.391 140.291 128.685  1.00 19.06     0.002 A 
ENDBRANCH  30  33
ENDBRANCH  25  26
ENDBRANCH   2  25
TORSDOF 10
ENDMDL
MODEL 3
REMARK VINA RESULT:      -8.0      2.146      5.423
REMARK  10 active torsions:
REMARK  status: ('A' for Active; 'I' for Inactive)
REMARK    1  A    between atoms: C15_2  and  N16_35 
REMARK    2  A    between atoms: C17_3  and  C18_17 
REMARK       I    between atoms: C17_3  and  N16_35 
REMARK    3  A    between atoms: C20_4  and  C19_18 
REMARK    4  A    between atoms: C20_4  and  N21_36 
REMARK    5  A    between atoms: C05_10  and  N06_33 
REMARK    6  A    between atoms: C07_11  and  N06_33 
REMARK    7  A    between atoms: C09_13  and  N10_34 
REMARK    8  A    between atoms: C11_14  and  C12_15 
REMARK       I    between atoms: C11_14  and  N10_34 
REMARK    9  A    between atoms: C18_17  and  C19_18 
REMARK   10  A    between atoms: C32_23  and  C33_24 
ROOT
HETATM    1  C28   D T 401     161.559 141.472 129.968  1.00 21.18     0.019 A 
HETATM    2  C07   D T 401     163.814 140.303 128.818  1.00 19.06     0.101 A 
HETATM    3  C08   D T 401     162.544 139.977 128.360  1.00 16.94     0.039 A 
HETATM    4  C09   D T 401     161.426 140.558 128.934  1.00 21.45     0.086 A 
HETATM    5  C29   D T 401     162.827 141.802 130.432  1.00 19.78     0.003 A 
HETATM    6  C30   D T 401     163.947 141.217 129.856  1.00 21.58     0.020 A 
ENDROOT
BRANCH   4   7
HETATM    7  N10   D T 401     160.099 140.205 128.427  1.00 19.17    -0.208 NA
HETATM    8  C11   D T 401     159.419 138.987 128.856  1.00 22.26     0.279 C 
HETATM    9  O27   D T 401     159.923 138.247 129.633  1.00 26.07    -0.265 OA
BRANCH   8  10
HETATM   10  C12   D T 401     158.022 138.716 128.261  1.00 24.43     0.058 A 
HETATM   11  C13   D T 401     157.036 138.058 128.987  1.00 19.42     0.006 A 
HETATM   12  C14   D T 401     155.784 137.849 128.410  1.00 22.31     0.019 A 
HETATM   13  C15   D T 401     155.524 138.287 127.115  1.00 21.62     0.084 A 
HETATM   14  C25   D T 401     156.513 138.951 126.403  1.00 21.42     0.019 A 
HETATM   15  C26   D T 401     157.762 139.162 126.976  1.00 21.95     0.006 A 
BRANCH  13  16
HETATM   16  N16   D T 401     154.218 138.096 126.467  1.00 25.51    -0.212 NA
HETATM   17  C17   D T 401     153.985 137.408 125.196  1.00 24.13     0.256 C 
HETATM   18  O24   D T 401     154.869 136.943 124.565  1.00 25.64    -0.270 OA
BRANCH  17  19
HETATM   19  C18   D T 401     152.540 137.304 124.682  1.00 23.56     0.092 C 
BRANCH  19  20
HETATM   20  C19   D T 401     151.724 136.237 125.423  1.00 23.00     0.045 C 
BRANCH  20  21
HETATM   21  C20   D T 401     152.512 135.542 126.544  1.00 23.91     0.251 C 
BRANCH  21  22
HETATM   22  N21   D T 401     151.812 135.534 127.825  1.00 24.92     0.141 N 
HETATM   23  C22   D T 401     150.669 136.428 127.781  1.00 20.50     0.285 C 
HETATM   24  C23   D T 401     152.683 135.886 128.936  1.00 22.52     0.285 C 
ENDBRANCH  21  22
ENDBRANCH  20  21
ENDBRANCH  19  20
ENDBRANCH  17  19
ENDBRANCH  13  16
ENDBRANCH   8  10
ENDBRANCH   4   7
BRANCH   2  25
HETATM   25  N06   D T 401     164.953 139.650 128.170  1.00 17.51    -0.059 NA
BRANCH  25  26
HETATM   26  C05   D T 401     164.967 138.304 127.595  1.00 12.97     0.750 A 
HETATM   27  N04   D T 401     165.154 137.290 128.413  1.00 12.15    -0.057 NA
HETATM   28  C03   D T 401     165.190 136.046 127.975  1.00 11.33     0.131 A 
HETATM   29  C02   D T 401     165.029 135.810 126.617  1.00 11.26     0.096 A 
HETATM   30  C32   D T 401     164.841 136.894 125.764  1.00 14.70     0.113 A 
HETATM   31 CL01   D T 401     165.076 134.127 126.026  1.00 21.09    -0.079 Cl
HETATM   32  N31   D T 401     164.822 138.103 126.300  1.00 12.85    -0.058 NA
BRANCH  30  33
HETATM   33  C33   D T 401     164.657 136.753 124.249  1.00 15.44     0.040 A 
HETATM   34  C34   D T 401     165.436 136.014 123.373  1.00 16.40     0.101 A 
HETATM   35  N35   D T 401     164.940 136.174 122.147  1.00 15.92    -0.244 NA
HETATM   36  C36   D T 401     163.860 137.009 122.195  1.00 17.01     0.082 A 
HETATM   37  C37   D T 401     163.005 137.484 121.165  1.00 19.80     0.019 A 
HETATM   38  C41   D T 401     163.654 137.396 123.489  1.00 17.83     0.021 A 
HETATM   39  C38   D T 401     161.958 138.341 121.475  1.00 21.73     0.002 A 
HETATM   40  C39   D T 401     161.748 138.738 122.795  1.00 19.54     0.000 A 
HETATM   41  C40   D T 401     162.588 138.272 123.803  1.00 19.06     0.002 A 
ENDBRANCH  30  33
ENDBRANCH  25  26
ENDBRANCH   2  25
TORSDOF 10
ENDMDL
MODEL 4
REMARK VINA RESULT:      -7.8      2.987      6.350
REMARK  10 active torsions:
REMARK  status: ('A' for Active; 'I' for Inactive)
REMARK    1  A    between atoms: C15_2  and  N16_35 
REMARK    2  A    between atoms: C17_3  and  C18_17 
REMARK       I    between atoms: C17_3  and  N16_35 
REMARK    3  A    between atoms: C20_4  and  C19_18 
REMARK    4  A    between atoms: C20_4  and  N21_36 
REMARK    5  A    between atoms: C05_10  and  N06_33 
REMARK    6  A    between atoms: C07_11  and  N06_33 
REMARK    7  A    between atoms: C09_13  and  N10_34 
REMARK    8  A    between atoms: C11_14  and  C12_15 
REMARK       I    between atoms: C11_14  and  N10_34 
REMARK    9  A    between atoms: C18_17  and  C19_18 
REMARK   10  A    between atoms: C32_23  and  C33_24 
ROOT
HETATM    1  C28   D T 401     163.307 140.040 129.811  1.00 21.18     0.019 A 
HETATM    2  C07   D T 401     164.809 140.047 127.463  1.00 19.06     0.101 A 
HETATM    3  C08   D T 401     163.508 139.560 127.462  1.00 16.94     0.039 A 
HETATM    4  C09   D T 401     162.766 139.556 128.631  1.00 21.45     0.086 A 
HETATM    5  C29   D T 401     164.609 140.529 129.820  1.00 19.78     0.003 A 
HETATM    6  C30   D T 401     165.353 140.530 128.646  1.00 21.58     0.020 A 
ENDROOT
BRANCH   4   7
HETATM    7  N10   D T 401     161.394 139.046 128.602  1.00 19.17    -0.208 NA
HETATM    8  C11   D T 401     160.256 139.906 128.911  1.00 22.26     0.279 C 
HETATM    9  O27   D T 401     160.410 141.047 129.193  1.00 26.07    -0.265 OA
BRANCH   8  10
HETATM   10  C12   D T 401     158.854 139.265 128.847  1.00 24.43     0.058 A 
HETATM   11  C13   D T 401     157.744 139.983 128.419  1.00 19.42     0.006 A 
HETATM   12  C14   D T 401     156.500 139.355 128.365  1.00 22.31     0.019 A 
HETATM   13  C15   D T 401     156.368 138.022 128.744  1.00 21.62     0.084 A 
HETATM   14  C25   D T 401     157.485 137.312 129.160  1.00 21.42     0.019 A 
HETATM   15  C26   D T 401     158.726 137.935 129.214  1.00 21.95     0.006 A 
BRANCH  13  16
HETATM   16  N16   D T 401     155.079 137.315 128.697  1.00 25.51    -0.212 NA
HETATM   17  C17   D T 401     154.132 137.188 129.806  1.00 24.13     0.256 C 
HETATM   18  O24   D T 401     154.346 137.656 130.869  1.00 25.64    -0.270 OA
BRANCH  17  19
HETATM   19  C18   D T 401     152.827 136.412 129.560  1.00 23.56     0.092 C 
BRANCH  19  20
HETATM   20  C19   D T 401     152.849 135.623 128.245  1.00 23.00     0.045 C 
BRANCH  20  21
HETATM   21  C20   D T 401     151.535 135.721 127.457  1.00 23.91     0.251 C 
BRANCH  21  22
HETATM   22  N21   D T 401     151.712 136.213 126.093  1.00 24.92     0.141 N 
HETATM   23  C22   D T 401     153.116 136.473 125.830  1.00 20.50     0.285 C 
HETATM   24  C23   D T 401     150.922 137.405 125.826  1.00 22.52     0.285 C 
ENDBRANCH  21  22
ENDBRANCH  20  21
ENDBRANCH  19  20
ENDBRANCH  17  19
ENDBRANCH  13  16
ENDBRANCH   8  10
ENDBRANCH   4   7
BRANCH   2  25
HETATM   25  N06   D T 401     165.540 140.019 126.194  1.00 17.51    -0.059 NA
BRANCH  25  26
HETATM   26  C05   D T 401     165.062 140.529 124.908  1.00 12.97     0.750 A 
HETATM   27  N04   D T 401     165.082 141.831 124.719  1.00 12.15    -0.057 NA
HETATM   28  C03   D T 401     164.659 142.373 123.592  1.00 11.33     0.131 A 
HETATM   29  C02   D T 401     164.179 141.542 122.590  1.00 11.26     0.096 A 
HETATM   30  C32   D T 401     164.156 140.167 122.809  1.00 14.70     0.113 A 
HETATM   31 CL01   D T 401     163.609 142.275 121.067  1.00 21.09    -0.079 Cl
HETATM   32  N31   D T 401     164.601 139.722 123.973  1.00 12.85    -0.058 NA
BRANCH  30  33
HETATM   33  C33   D T 401     163.645 139.157 121.777  1.00 15.44     0.040 A 
HETATM   34  C34   D T 401     164.386 138.490 120.814  1.00 16.40     0.101 A 
HETATM   35  N35   D T 401     163.556 137.717 120.118  1.00 15.92    -0.244 NA
HETATM   36  C36   D T 401     162.284 137.867 120.593  1.00 17.01     0.082 A 
HETATM   37  C37   D T 401     161.062 137.268 120.186  1.00 19.80     0.019 A 
HETATM   38  C41   D T 401     162.297 138.761 121.625  1.00 17.83     0.021 A 
HETATM   39  C38   D T 401     159.880 137.591 120.839  1.00 21.73     0.002 A 
HETATM   40  C39   D T 401     159.893 138.505 121.892  1.00 19.54     0.000 A 
HETATM   41  C40   D T 401     161.092 139.092 122.289  1.00 19.06     0.002 A 
ENDBRANCH  30  33
ENDBRANCH  25  26
ENDBRANCH   2  25
TORSDOF 10
ENDMDL
MODEL 5
REMARK VINA RESULT:      -7.6      2.585      5.656
REMARK  10 active torsions:
REMARK  status: ('A' for Active; 'I' for Inactive)
REMARK    1  A    between atoms: C15_2  and  N16_35 
REMARK    2  A    between atoms: C17_3  and  C18_17 
REMARK       I    between atoms: C17_3  and  N16_35 
REMARK    3  A    between atoms: C20_4  and  C19_18 
REMARK    4  A    between atoms: C20_4  and  N21_36 
REMARK    5  A    between atoms: C05_10  and  N06_33 
REMARK    6  A    between atoms: C07_11  and  N06_33 
REMARK    7  A    between atoms: C09_13  and  N10_34 
REMARK    8  A    between atoms: C11_14  and  C12_15 
REMARK       I    between atoms: C11_14  and  N10_34 
REMARK    9  A    between atoms: C18_17  and  C19_18 
REMARK   10  A    between atoms: C32_23  and  C33_24 
ROOT
HETATM    1  C28   D T 401     161.933 142.577 130.214  1.00 21.18     0.019 A 
HETATM    2  C07   D T 401     164.284 141.201 129.622  1.00 19.06     0.101 A 
HETATM    3  C08   D T 401     163.053 140.568 129.508  1.00 16.94     0.039 A 
HETATM    4  C09   D T 401     161.887 141.254 129.805  1.00 21.45     0.086 A 
HETATM    5  C29   D T 401     163.162 143.217 130.331  1.00 19.78     0.003 A 
HETATM    6  C30   D T 401     164.331 142.526 130.034  1.00 21.58     0.020 A 
ENDROOT
BRANCH   4   7
HETATM    7  N10   D T 401     160.602 140.568 129.668  1.00 19.17    -0.208 NA
HETATM    8  C11   D T 401     160.326 139.685 128.539  1.00 22.26     0.279 C 
HETATM    9  O27   D T 401     161.140 139.495 127.698  1.00 26.07    -0.265 OA
BRANCH   8  10
HETATM   10  C12   D T 401     158.940 139.009 128.498  1.00 24.43     0.058 A 
HETATM   11  C13   D T 401     158.620 137.951 129.339  1.00 19.42     0.006 A 
HETATM   12  C14   D T 401     157.348 137.383 129.273  1.00 22.31     0.019 A 
HETATM   13  C15   D T 401     156.408 137.865 128.367  1.00 21.62     0.084 A 
HETATM   14  C25   D T 401     156.736 138.929 127.538  1.00 21.42     0.019 A 
HETATM   15  C26   D T 401     158.002 139.498 127.602  1.00 21.95     0.006 A 
BRANCH  13  16
HETATM   16  N16   D T 401     155.053 137.303 128.266  1.00 25.51    -0.212 NA
HETATM   17  C17   D T 401     154.069 137.243 129.348  1.00 24.13     0.256 C 
HETATM   18  O24   D T 401     154.305 137.649 130.432  1.00 25.64    -0.270 OA
BRANCH  17  19
HETATM   19  C18   D T 401     152.696 136.620 129.046  1.00 23.56     0.092 C 
BRANCH  19  20
HETATM   20  C19   D T 401     152.795 135.373 128.159  1.00 23.00     0.045 C 
BRANCH  20  21
HETATM   21  C20   D T 401     152.099 135.538 126.801  1.00 23.91     0.251 C 
BRANCH  21  22
HETATM   22  N21   D T 401     152.225 136.881 126.244  1.00 24.92     0.141 N 
HETATM   23  C22   D T 401     150.954 137.323 125.698  1.00 20.50     0.285 C 
HETATM   24  C23   D T 401     153.265 136.967 125.229  1.00 22.52     0.285 C 
ENDBRANCH  21  22
ENDBRANCH  20  21
ENDBRANCH  19  20
ENDBRANCH  17  19
ENDBRANCH  13  16
ENDBRANCH   8  10
ENDBRANCH   4   7
BRANCH   2  25
HETATM   25  N06   D T 401     165.478 140.417 129.296  1.00 17.51    -0.059 NA
BRANCH  25  26
HETATM   26  C05   D T 401     165.808 139.846 127.990  1.00 12.97     0.750 A 
HETATM   27  N04   D T 401     166.675 138.858 127.954  1.00 12.15    -0.057 NA
HETATM   28  C03   D T 401     167.035 138.293 126.817  1.00 11.33     0.131 A 
HETATM   29  C02   D T 401     166.483 138.763 125.633  1.00 11.26     0.096 A 
HETATM   30  C32   D T 401     165.573 139.815 125.687  1.00 14.70     0.113 A 
HETATM   31 CL01   D T 401     166.969 137.998 124.096  1.00 21.09    -0.079 Cl
HETATM   32  N31   D T 401     165.279 140.314 126.876  1.00 12.85    -0.058 NA
BRANCH  30  33
HETATM   33  C33   D T 401     164.905 140.416 124.446  1.00 15.44     0.040 A 
HETATM   34  C34   D T 401     165.121 141.671 123.899  1.00 16.40     0.101 A 
HETATM   35  N35   D T 401     164.330 141.798 122.835  1.00 15.92    -0.244 NA
HETATM   36  C36   D T 401     163.591 140.661 122.676  1.00 17.01     0.082 A 
HETATM   37  C37   D T 401     162.615 140.314 121.704  1.00 19.80     0.019 A 
HETATM   38  C41   D T 401     163.917 139.776 123.664  1.00 17.83     0.021 A 
HETATM   39  C38   D T 401     161.993 139.074 121.759  1.00 21.73     0.002 A 
HETATM   40  C39   D T 401     162.324 138.171 122.768  1.00 19.54     0.000 A 
HETATM   41  C40   D T 401     163.281 138.513 123.720  1.00 19.06     0.002 A 
ENDBRANCH  30  33
ENDBRANCH  25  26
ENDBRANCH   2  25
TORSDOF 10
ENDMDL
MODEL 6
REMARK VINA RESULT:      -7.3      4.682      7.590
REMARK  10 active torsions:
REMARK  status: ('A' for Active; 'I' for Inactive)
REMARK    1  A    between atoms: C15_2  and  N16_35 
REMARK    2  A    between atoms: C17_3  and  C18_17 
REMARK       I    between atoms: C17_3  and  N16_35 
REMARK    3  A    between atoms: C20_4  and  C19_18 
REMARK    4  A    between atoms: C20_4  and  N21_36 
REMARK    5  A    between atoms: C05_10  and  N06_33 
REMARK    6  A    between atoms: C07_11  and  N06_33 
REMARK    7  A    between atoms: C09_13  and  N10_34 
REMARK    8  A    between atoms: C11_14  and  C12_15 
REMARK       I    between atoms: C11_14  and  N10_34 
REMARK    9  A    between atoms: C18_17  and  C19_18 
REMARK   10  A    between atoms: C32_23  and  C33_24 
ROOT
HETATM    1  C28   D T 401     161.884 137.666 120.917  1.00 21.18     0.019 A 
HETATM    2  C07   D T 401     164.055 139.412 120.821  1.00 19.06     0.101 A 
HETATM    3  C08   D T 401     163.115 139.516 121.839  1.00 16.94     0.039 A 
HETATM    4  C09   D T 401     162.038 138.648 121.883  1.00 21.45     0.086 A 
HETATM    5  C29   D T 401     162.820 137.556 119.895  1.00 19.78     0.003 A 
HETATM    6  C30   D T 401     163.900 138.430 119.852  1.00 21.58     0.020 A 
ENDROOT
BRANCH   4   7
HETATM    7  N10   D T 401     161.067 138.772 122.971  1.00 19.17    -0.208 NA
HETATM    8  C11   D T 401     159.655 139.030 122.705  1.00 22.26     0.279 C 
HETATM    9  O27   D T 401     159.252 139.145 121.596  1.00 26.07    -0.265 OA
BRANCH   8  10
HETATM   10  C12   D T 401     158.719 139.137 123.926  1.00 24.43     0.058 A 
HETATM   11  C13   D T 401     158.111 140.337 124.276  1.00 19.42     0.006 A 
HETATM   12  C14   D T 401     157.262 140.380 125.381  1.00 22.31     0.019 A 
HETATM   13  C15   D T 401     157.030 139.233 126.135  1.00 21.62     0.084 A 
HETATM   14  C25   D T 401     157.634 138.038 125.771  1.00 21.42     0.019 A 
HETATM   15  C26   D T 401     158.480 137.992 124.669  1.00 21.95     0.006 A 
BRANCH  13  16
HETATM   16  N16   D T 401     156.137 139.227 127.303  1.00 25.51    -0.212 NA
HETATM   17  C17   D T 401     156.562 139.213 128.705  1.00 24.13     0.256 C 
HETATM   18  O24   D T 401     157.702 139.195 129.013  1.00 25.64    -0.270 OA
BRANCH  17  19
HETATM   19  C18   D T 401     155.474 139.216 129.792  1.00 23.56     0.092 C 
BRANCH  19  20
HETATM   20  C19   D T 401     154.067 139.420 129.218  1.00 23.00     0.045 C 
BRANCH  20  21
HETATM   21  C20   D T 401     153.130 138.230 129.472  1.00 23.91     0.251 C 
BRANCH  21  22
HETATM   22  N21   D T 401     153.660 136.961 128.982  1.00 24.92     0.141 N 
HETATM   23  C22   D T 401     153.519 136.880 127.539  1.00 20.50     0.285 C 
HETATM   24  C23   D T 401     153.026 135.813 129.613  1.00 22.52     0.285 C 
ENDBRANCH  21  22
ENDBRANCH  20  21
ENDBRANCH  19  20
ENDBRANCH  17  19
ENDBRANCH  13  16
ENDBRANCH   8  10
ENDBRANCH   4   7
BRANCH   2  25
HETATM   25  N06   D T 401     165.169 140.363 120.832  1.00 17.51    -0.059 NA
BRANCH  25  26
HETATM   26  C05   D T 401     165.079 141.804 120.588  1.00 12.97     0.750 A 
HETATM   27  N04   D T 401     165.619 142.611 121.476  1.00 12.15    -0.057 NA
HETATM   28  C03   D T 401     165.574 143.922 121.336  1.00 11.33     0.131 A 
HETATM   29  C02   D T 401     164.936 144.455 120.226  1.00 11.26     0.096 A 
HETATM   30  C32   D T 401     164.362 143.588 119.300  1.00 14.70     0.113 A 
HETATM   31 CL01   D T 401     164.876 146.228 120.037  1.00 21.09    -0.079 Cl
HETATM   32  N31   D T 401     164.460 142.289 119.530  1.00 12.85    -0.058 NA
BRANCH  30  33
HETATM   33  C33   D T 401     163.629 144.063 118.041  1.00 15.44     0.040 A 
HETATM   34  C34   D T 401     164.063 143.965 116.728  1.00 16.40     0.101 A 
HETATM   35  N35   D T 401     163.133 144.510 115.945  1.00 15.92    -0.244 NA
HETATM   36  C36   D T 401     162.103 144.973 116.713  1.00 17.01     0.082 A 
HETATM   37  C37   D T 401     160.896 145.628 116.352  1.00 19.80     0.019 A 
HETATM   38  C41   D T 401     162.377 144.718 118.027  1.00 17.83     0.021 A 
HETATM   39  C38   D T 401     159.993 146.008 117.336  1.00 21.73     0.002 A 
HETATM   40  C39   D T 401     160.272 145.749 118.677  1.00 19.54     0.000 A 
HETATM   41  C40   D T 401     161.457 145.107 119.029  1.00 19.06     0.002 A 
ENDBRANCH  30  33
ENDBRANCH  25  26
ENDBRANCH   2  25
TORSDOF 10
ENDMDL
MODEL 7
REMARK VINA RESULT:      -7.0      2.127      4.964
REMARK  10 active torsions:
REMARK  status: ('A' for Active; 'I' for Inactive)
REMARK    1  A    between atoms: C15_2  and  N16_35 
REMARK    2  A    between atoms: C17_3  and  C18_17 
REMARK       I    between atoms: C17_3  and  N16_35 
REMARK    3  A    between atoms: C20_4  and  C19_18 
REMARK    4  A    between atoms: C20_4  and  N21_36 
REMARK    5  A    between atoms: C05_10  and  N06_33 
REMARK    6  A    between atoms: C07_11  and  N06_33 
REMARK    7  A    between atoms: C09_13  and  N10_34 
REMARK    8  A    between atoms: C11_14  and  C12_15 
REMARK       I    between atoms: C11_14  and  N10_34 
REMARK    9  A    between atoms: C18_17  and  C19_18 
REMARK   10  A    between atoms: C32_23  and  C33_24 
ROOT
HETATM    1  C28   D T 401     161.609 140.763 130.090  1.00 21.18     0.019 A 
HETATM    2  C07   D T 401     163.733 139.084 129.428  1.00 19.06     0.101 A 
HETATM    3  C08   D T 401     162.438 138.763 129.041  1.00 16.94     0.039 A 
HETATM    4  C09   D T 401     161.385 139.598 129.374  1.00 21.45     0.086 A 
HETATM    5  C29   D T 401     162.903 141.091 130.481  1.00 19.78     0.003 A 
HETATM    6  C30   D T 401     163.958 140.250 130.148  1.00 21.58     0.020 A 
ENDROOT
BRANCH   4   7
HETATM    7  N10   D T 401     160.031 139.242 128.948  1.00 19.17    -0.208 NA
HETATM    8  C11   D T 401     159.641 139.280 127.542  1.00 22.26     0.279 C 
HETATM    9  O27   D T 401     160.413 139.599 126.701  1.00 26.07    -0.265 OA
BRANCH   8  10
HETATM   10  C12   D T 401     158.190 138.881 127.205  1.00 24.43     0.058 A 
HETATM   11  C13   D T 401     157.895 138.032 126.145  1.00 19.42     0.006 A 
HETATM   12  C14   D T 401     156.567 137.689 125.890  1.00 22.31     0.019 A 
HETATM   13  C15   D T 401     155.544 138.200 126.682  1.00 21.62     0.084 A 
HETATM   14  C25   D T 401     155.851 139.040 127.743  1.00 21.42     0.019 A 
HETATM   15  C26   D T 401     157.173 139.382 128.002  1.00 21.95     0.006 A 
BRANCH  13  16
HETATM   16  N16   D T 401     154.130 137.862 126.456  1.00 25.51    -0.212 NA
HETATM   17  C17   D T 401     153.544 137.444 125.181  1.00 24.13     0.256 C 
HETATM   18  O24   D T 401     154.189 137.353 124.195  1.00 25.64    -0.270 OA
BRANCH  17  19
HETATM   19  C18   D T 401     152.040 137.126 125.144  1.00 23.56     0.092 C 
BRANCH  19  20
HETATM   20  C19   D T 401     151.651 135.999 126.109  1.00 23.00     0.045 C 
BRANCH  20  21
HETATM   21  C20   D T 401     151.174 136.509 127.477  1.00 23.91     0.251 C 
BRANCH  21  22
HETATM   22  N21   D T 401     152.011 136.062 128.586  1.00 24.92     0.141 N 
HETATM   23  C22   D T 401     152.659 137.197 129.219  1.00 20.50     0.285 C 
HETATM   24  C23   D T 401     153.005 135.083 128.173  1.00 22.52     0.285 C 
ENDBRANCH  21  22
ENDBRANCH  20  21
ENDBRANCH  19  20
ENDBRANCH  17  19
ENDBRANCH  13  16
ENDBRANCH   8  10
ENDBRANCH   4   7
BRANCH   2  25
HETATM   25  N06   D T 401     164.800 138.155 129.047  1.00 17.51    -0.059 NA
BRANCH  25  26
HETATM   26  C05   D T 401     165.040 137.616 127.708  1.00 12.97     0.750 A 
HETATM   27  N04   D T 401     165.839 136.575 127.600  1.00 12.15    -0.057 NA
HETATM   28  C03   D T 401     166.115 136.034 126.429  1.00 11.33     0.131 A 
HETATM   29  C02   D T 401     165.549 136.583 125.287  1.00 11.26     0.096 A 
HETATM   30  C32   D T 401     164.713 137.689 125.417  1.00 14.70     0.113 A 
HETATM   31 CL01   D T 401     165.922 135.849 123.705  1.00 21.09    -0.079 Cl
HETATM   32  N31   D T 401     164.499 138.159 126.635  1.00 12.85    -0.058 NA
BRANCH  30  33
HETATM   33  C33   D T 401     164.037 138.380 124.228  1.00 15.44     0.040 A 
HETATM   34  C34   D T 401     163.187 137.807 123.295  1.00 16.40     0.101 A 
HETATM   35  N35   D T 401     162.835 138.751 122.425  1.00 15.92    -0.244 NA
HETATM   36  C36   D T 401     163.440 139.929 122.758  1.00 17.01     0.082 A 
HETATM   37  C37   D T 401     163.385 141.210 122.145  1.00 19.80     0.019 A 
HETATM   38  C41   D T 401     164.203 139.738 123.875  1.00 17.83     0.021 A 
HETATM   39  C38   D T 401     164.105 142.267 122.684  1.00 21.73     0.002 A 
HETATM   40  C39   D T 401     164.885 142.072 123.823  1.00 19.54     0.000 A 
HETATM   41  C40   D T 401     164.939 140.816 124.422  1.00 19.06     0.002 A 
ENDBRANCH  30  33
ENDBRANCH  25  26
ENDBRANCH   2  25
TORSDOF 10
ENDMDL
MODEL 8
REMARK VINA RESULT:      -6.6      2.810      6.581
REMARK  10 active torsions:
REMARK  status: ('A' for Active; 'I' for Inactive)
REMARK    1  A    between atoms: C15_2  and  N16_35 
REMARK    2  A    between atoms: C17_3  and  C18_17 
REMARK       I    between atoms: C17_3  and  N16_35 
REMARK    3  A    between atoms: C20_4  and  C19_18 
REMARK    4  A    between atoms: C20_4  and  N21_36 
REMARK    5  A    between atoms: C05_10  and  N06_33 
REMARK    6  A    between atoms: C07_11  and  N06_33 
REMARK    7  A    between atoms: C09_13  and  N10_34 
REMARK    8  A    between atoms: C11_14  and  C12_15 
REMARK       I    between atoms: C11_14  and  N10_34 
REMARK    9  A    between atoms: C18_17  and  C19_18 
REMARK   10  A    between atoms: C32_23  and  C33_24 
ROOT
HETATM    1  C28   D T 401     161.498 140.375 129.746  1.00 21.18     0.019 A 
HETATM    2  C07   D T 401     163.282 139.580 127.757  1.00 19.06     0.101 A 
HETATM    3  C08   D T 401     161.921 139.343 127.614  1.00 16.94     0.039 A 
HETATM    4  C09   D T 401     161.038 139.737 128.605  1.00 21.45     0.086 A 
HETATM    5  C29   D T 401     162.860 140.615 129.896  1.00 19.78     0.003 A 
HETATM    6  C30   D T 401     163.744 140.217 128.901  1.00 21.58     0.020 A 
ENDROOT
BRANCH   4   7
HETATM    7  N10   D T 401     159.608 139.484 128.427  1.00 19.17    -0.208 NA
HETATM    8  C11   D T 401     158.908 138.479 129.221  1.00 22.26     0.279 C 
HETATM    9  O27   D T 401     159.480 137.837 130.037  1.00 26.07    -0.265 OA
BRANCH   8  10
HETATM   10  C12   D T 401     157.400 138.298 128.954  1.00 24.43     0.058 A 
HETATM   11  C13   D T 401     156.442 138.731 129.863  1.00 19.42     0.006 A 
HETATM   12  C14   D T 401     155.089 138.557 129.569  1.00 22.31     0.019 A 
HETATM   13  C15   D T 401     154.700 137.948 128.380  1.00 21.62     0.084 A 
HETATM   14  C25   D T 401     155.665 137.529 127.475  1.00 21.42     0.019 A 
HETATM   15  C26   D T 401     157.014 137.701 127.764  1.00 21.95     0.006 A 
BRANCH  13  16
HETATM   16  N16   D T 401     153.287 137.750 128.024  1.00 25.51    -0.212 NA
HETATM   17  C17   D T 401     152.491 136.556 128.313  1.00 24.13     0.256 C 
HETATM   18  O24   D T 401     152.947 135.619 128.870  1.00 25.64    -0.270 OA
BRANCH  17  19
HETATM   19  C18   D T 401     151.020 136.539 127.864  1.00 23.56     0.092 C 
BRANCH  19  20
HETATM   20  C19   D T 401     150.864 136.715 126.348  1.00 23.00     0.045 C 
BRANCH  20  21
HETATM   21  C20   D T 401     152.023 136.108 125.545  1.00 23.91     0.251 C 
BRANCH  21  22
HETATM   22  N21   D T 401     152.464 136.950 124.436  1.00 24.92     0.141 N 
HETATM   23  C22   D T 401     153.882 137.237 124.553  1.00 20.50     0.285 C 
HETATM   24  C23   D T 401     151.707 138.189 124.345  1.00 22.52     0.285 C 
ENDBRANCH  21  22
ENDBRANCH  20  21
ENDBRANCH  19  20
ENDBRANCH  17  19
ENDBRANCH  13  16
ENDBRANCH   8  10
ENDBRANCH   4   7
BRANCH   2  25
HETATM   25  N06   D T 401     164.161 139.135 126.673  1.00 17.51    -0.059 NA
BRANCH  25  26
HETATM   26  C05   D T 401     164.105 139.573 125.278  1.00 12.97     0.750 A 
HETATM   27  N04   D T 401     164.933 140.524 124.900  1.00 12.15    -0.057 NA
HETATM   28  C03   D T 401     164.940 140.983 123.663  1.00 11.33     0.131 A 
HETATM   29  C02   D T 401     164.048 140.447 122.745  1.00 11.26     0.096 A 
HETATM   30  C32   D T 401     163.173 139.447 123.163  1.00 14.70     0.113 A 
HETATM   31 CL01   D T 401     164.060 141.067 121.072  1.00 21.09    -0.079 Cl
HETATM   32  N31   D T 401     163.243 139.056 124.425  1.00 12.85    -0.058 NA
BRANCH  30  33
HETATM   33  C33   D T 401     162.144 138.787 122.239  1.00 15.44     0.040 A 
HETATM   34  C34   D T 401     160.768 138.748 122.404  1.00 16.40     0.101 A 
HETATM   35  N35   D T 401     160.251 138.066 121.384  1.00 15.92    -0.244 NA
HETATM   36  C36   D T 401     161.254 137.646 120.558  1.00 17.01     0.082 A 
HETATM   37  C37   D T 401     161.215 136.890 119.356  1.00 19.80     0.019 A 
HETATM   38  C41   D T 401     162.452 138.071 121.060  1.00 17.83     0.021 A 
HETATM   39  C38   D T 401     162.394 136.586 118.690  1.00 21.73     0.002 A 
HETATM   40  C39   D T 401     163.617 137.019 119.202  1.00 19.54     0.000 A 
HETATM   41  C40   D T 401     163.653 137.759 120.382  1.00 19.06     0.002 A 
ENDBRANCH  30  33
ENDBRANCH  25  26
ENDBRANCH   2  25
TORSDOF 10
ENDMDL
MODEL 9
REMARK VINA RESULT:      -6.5      4.496     11.182
REMARK  10 active torsions:
REMARK  status: ('A' for Active; 'I' for Inactive)
REMARK    1  A    between atoms: C15_2  and  N16_35 
REMARK    2  A    between atoms: C17_3  and  C18_17 
REMARK       I    between atoms: C17_3  and  N16_35 
REMARK    3  A    between atoms: C20_4  and  C19_18 
REMARK    4  A    between atoms: C20_4  and  N21_36 
REMARK    5  A    between atoms: C05_10  and  N06_33 
REMARK    6  A    between atoms: C07_11  and  N06_33 
REMARK    7  A    between atoms: C09_13  and  N10_34 
REMARK    8  A    between atoms: C11_14  and  C12_15 
REMARK       I    between atoms: C11_14  and  N10_34 
REMARK    9  A    between atoms: C18_17  and  C19_18 
REMARK   10  A    between atoms: C32_23  and  C33_24 
ROOT
HETATM    1  C28   D T 401     157.936 138.722 123.050  1.00 21.18     0.019 A 
HETATM    2  C07   D T 401     158.191 138.309 125.795  1.00 19.06     0.101 A 
HETATM    3  C08   D T 401     159.210 138.925 125.080  1.00 16.94     0.039 A 
HETATM    4  C09   D T 401     159.081 139.127 123.717  1.00 21.45     0.086 A 
HETATM    5  C29   D T 401     156.912 138.103 123.758  1.00 19.78     0.003 A 
HETATM    6  C30   D T 401     157.044 137.900 125.127  1.00 21.58     0.020 A 
ENDROOT
BRANCH   4   7
HETATM    7  N10   D T 401     160.165 139.787 122.988  1.00 19.17    -0.208 NA
HETATM    8  C11   D T 401     161.329 139.042 122.516  1.00 22.26     0.279 C 
HETATM    9  O27   D T 401     161.428 137.877 122.708  1.00 26.07    -0.265 OA
BRANCH   8  10
HETATM   10  C12   D T 401     162.410 139.837 121.755  1.00 24.43     0.058 A 
HETATM   11  C13   D T 401     162.943 139.379 120.557  1.00 19.42     0.006 A 
HETATM   12  C14   D T 401     163.909 140.141 119.899  1.00 22.31     0.019 A 
HETATM   13  C15   D T 401     164.342 141.347 120.442  1.00 21.62     0.084 A 
HETATM   14  C25   D T 401     163.795 141.800 121.634  1.00 21.42     0.019 A 
HETATM   15  C26   D T 401     162.832 141.044 122.291  1.00 21.95     0.006 A 
BRANCH  13  16
HETATM   16  N16   D T 401     165.351 142.188 119.782  1.00 25.51    -0.212 NA
HETATM   17  C17   D T 401     165.104 143.111 118.672  1.00 24.13     0.256 C 
HETATM   18  O24   D T 401     164.030 143.246 118.197  1.00 25.64    -0.270 OA
BRANCH  17  19
HETATM   19  C18   D T 401     166.293 143.913 118.117  1.00 23.56     0.092 C 
BRANCH  19  20
HETATM   20  C19   D T 401     166.959 144.794 119.180  1.00 23.00     0.045 C 
BRANCH  20  21
HETATM   21  C20   D T 401     165.969 145.711 119.914  1.00 23.91     0.251 C 
BRANCH  21  22
HETATM   22  N21   D T 401     166.087 145.645 121.368  1.00 24.92     0.141 N 
HETATM   23  C22   D T 401     167.059 144.637 121.750  1.00 20.50     0.285 C 
HETATM   24  C23   D T 401     164.811 145.385 122.017  1.00 22.52     0.285 C 
ENDBRANCH  21  22
ENDBRANCH  20  21
ENDBRANCH  19  20
ENDBRANCH  17  19
ENDBRANCH  13  16
ENDBRANCH   8  10
ENDBRANCH   4   7
BRANCH   2  25
HETATM   25  N06   D T 401     158.393 138.123 127.234  1.00 17.51    -0.059 NA
BRANCH  25  26
HETATM   26  C05   D T 401     157.343 137.976 128.243  1.00 12.97     0.750 A 
HETATM   27  N04   D T 401     157.644 138.274 129.489  1.00 12.15    -0.057 NA
HETATM   28  C03   D T 401     156.758 138.160 130.460  1.00 11.33     0.131 A 
HETATM   29  C02   D T 401     155.482 137.710 130.153  1.00 11.26     0.096 A 
HETATM   30  C32   D T 401     155.182 137.390 128.831  1.00 14.70     0.113 A 
HETATM   31 CL01   D T 401     154.285 137.557 131.467  1.00 21.09    -0.079 Cl
HETATM   32  N31   D T 401     156.139 137.538 127.930  1.00 12.85    -0.058 NA
BRANCH  30  33
HETATM   33  C33   D T 401     153.810 136.882 128.377  1.00 15.44     0.040 A 
HETATM   34  C34   D T 401     152.884 136.176 129.129  1.00 16.40     0.101 A 
HETATM   35  N35   D T 401     151.833 135.918 128.352  1.00 15.92    -0.244 NA
HETATM   36  C36   D T 401     152.051 136.429 127.104  1.00 17.01     0.082 A 
HETATM   37  C37   D T 401     151.242 136.411 125.937  1.00 19.80     0.019 A 
HETATM   38  C41   D T 401     153.276 137.034 127.078  1.00 17.83     0.021 A 
HETATM   39  C38   D T 401     151.695 137.010 124.770  1.00 21.73     0.002 A 
HETATM   40  C39   D T 401     152.946 137.626 124.742  1.00 19.54     0.000 A 
HETATM   41  C40   D T 401     153.738 137.642 125.887  1.00 19.06     0.002 A 
ENDBRANCH  30  33
ENDBRANCH  25  26
ENDBRANCH   2  25
TORSDOF 10
ENDMDL
