MODEL 1
REMARK VINA RESULT:    -8.223      0.000      0.000
REMARK INTER + INTRA:         -12.009
REMARK INTER:                 -11.107
REMARK INTRA:                  -0.901
REMARK UNBOUND:                -0.901
REMARK  6 active torsions:
REMARK  status: ('A' for Active; 'I' for Inactive)
REMARK       I    between atoms: N1_1  and  C25_25 
REMARK    1  A    between atoms: C3_3  and  N5_5 
REMARK       I    between atoms: N5_5  and  C6_6 
REMARK    2  A    between atoms: C6_6  and  C7_7 
REMARK    3  A    between atoms: N17_17  and  C24_24 
REMARK    4  A    between atoms: C25_25  and  C20_32 
REMARK    5  A    between atoms: C27_27  and  C20_32 
REMARK    6  A    between atoms: C20_32  and  O34_35 
ROOT
HETATM    1  N1    D T 503       4.979  15.231  18.794  1.00 24.46    -0.308 N 
HETATM    2  N2    D T 503       2.799  15.558  15.965  1.00 19.39    -0.149 NA
HETATM    3  C3    D T 503       4.480  14.487  15.198  1.00 31.01     0.186 A 
HETATM    4  N4    D T 503       3.320  15.025  14.849  1.00 27.54    -0.129 NA
HETATM    5  C13   D T 503       3.606  15.370  17.007  1.00 24.96     0.104 A 
HETATM    6  C14   D T 503       4.706  14.689  16.580  1.00 19.25     0.055 A 
HETATM    7  C15   D T 503       5.640  14.458  17.722  1.00 26.07     0.136 C 
HETATM    8  C16   D T 503       3.629  15.694  18.452  1.00 21.12     0.152 C 
HETATM    9  C25   D T 503       5.599  15.472  19.964  1.00 30.07     0.266 C 
HETATM   10  O26   D T 503       5.049  16.114  20.844  1.00 36.83    -0.269 OA
ENDROOT
BRANCH   3  11
HETATM   11  N5    D T 503       5.325  13.841  14.289  1.00 23.78    -0.187 NA
HETATM   12  C6    D T 503       5.800  12.560  14.292  1.00 25.92     0.281 C 
HETATM   13  O8    D T 503       5.518  11.744  15.147  1.00 35.07    -0.265 OA
BRANCH  12  14
HETATM   14  C7    D T 503       6.700  12.174  13.175  1.00 22.61     0.058 A 
HETATM   15  C9    D T 503       6.156  11.788  11.950  1.00 27.70     0.006 A 
HETATM   16  C10   D T 503       6.956  11.419  10.883  1.00 31.74     0.017 A 
HETATM   17  C24   D T 503       8.364  11.423  10.984  1.00 37.04     0.056 A 
HETATM   18  C11   D T 503       8.901  11.818  12.225  1.00 28.36     0.017 A 
HETATM   19  C12   D T 503       8.089  12.183  13.280  1.00 32.17     0.006 A 
BRANCH  17  20
HETATM   20  N17   D T 503       9.184  11.062   9.938  1.00 37.09    -0.344 N 
HETATM   21  C18   D T 503       8.900  11.625   8.614  1.00 40.90     0.137 C 
HETATM   22  C19   D T 503       8.932  10.646   7.443  1.00 43.74     0.274 C 
HETATM   23  N20   D T 503       9.224   9.261   7.746  1.00 46.06     0.143 N 
HETATM   24  C21   D T 503      10.314   9.236   8.688  1.00 48.57     0.274 C 
HETATM   25  C23   D T 503       9.453   8.436   6.578  1.00 42.63     0.286 C 
HETATM   26  C22   D T 503       9.939   9.820  10.041  1.00 38.35     0.137 C 
ENDBRANCH  17  20
ENDBRANCH  12  14
ENDBRANCH   3  11
BRANCH   9  27
HETATM   27  C20   D T 503       7.012  14.922  20.183  1.00 35.68     0.216 C 
BRANCH  27  28
HETATM   28  C27   D T 503       7.803  15.854  21.084  1.00 27.52     0.014 A 
HETATM   29  C28   D T 503       8.428  16.981  20.567  1.00 32.25    -0.001 A 
HETATM   30  C31   D T 503       9.150  17.831  21.398  1.00 34.44    -0.000 A 
HETATM   31  C35   D T 503       9.248  17.555  22.754  1.00 27.33    -0.000 A 
HETATM   32  C33   D T 503       8.622  16.426  23.276  1.00 33.54    -0.000 A 
HETATM   33  C29   D T 503       7.905  15.578  22.448  1.00 30.45    -0.001 A 
ENDBRANCH  27  28
BRANCH  27  34
HETATM   34  O34   D T 503       6.835  13.664  20.763  1.00 37.36    -0.340 OA
HETATM   35  C36   D T 503       7.594  12.646  20.151  1.00 32.21     0.175 C 
ENDBRANCH  27  34
ENDBRANCH   9  27
TORSDOF 6
ENDMDL
MODEL 2
REMARK VINA RESULT:    -7.342      3.051     10.658
REMARK INTER + INTRA:         -10.818
REMARK INTER:                  -9.866
REMARK INTRA:                  -0.952
REMARK UNBOUND:                -0.901
REMARK  6 active torsions:
REMARK  status: ('A' for Active; 'I' for Inactive)
REMARK       I    between atoms: N1_1  and  C25_25 
REMARK    1  A    between atoms: C3_3  and  N5_5 
REMARK       I    between atoms: N5_5  and  C6_6 
REMARK    2  A    between atoms: C6_6  and  C7_7 
REMARK    3  A    between atoms: N17_17  and  C24_24 
REMARK    4  A    between atoms: C25_25  and  C20_32 
REMARK    5  A    between atoms: C27_27  and  C20_32 
REMARK    6  A    between atoms: C20_32  and  O34_35 
ROOT
HETATM    1  N1    D T 503       5.834  13.036  13.591  1.00 24.46    -0.308 N 
HETATM    2  N2    D T 503       3.624  15.741  14.402  1.00 19.39    -0.149 NA
HETATM    3  C3    D T 503       4.913  15.604  16.098  1.00 31.01     0.186 A 
HETATM    4  N4    D T 503       3.864  16.256  15.618  1.00 27.54    -0.129 NA
HETATM    5  C13   D T 503       4.496  14.779  14.108  1.00 24.96     0.104 A 
HETATM    6  C14   D T 503       5.352  14.640  15.160  1.00 19.25     0.055 A 
HETATM    7  C15   D T 503       6.348  13.567  14.870  1.00 26.07     0.136 C 
HETATM    8  C16   D T 503       4.773  13.851  12.988  1.00 21.12     0.152 C 
HETATM    9  C25   D T 503       6.321  11.897  13.063  1.00 30.07     0.266 C 
HETATM   10  O26   D T 503       5.890  11.462  12.007  1.00 36.83    -0.269 OA
ENDROOT
BRANCH   3  11
HETATM   11  N5    D T 503       5.456  15.861  17.363  1.00 23.78    -0.187 NA
HETATM   12  C6    D T 503       4.830  16.116  18.549  1.00 25.92     0.281 C 
HETATM   13  O8    D T 503       3.622  16.144  18.676  1.00 35.07    -0.265 OA
BRANCH  12  14
HETATM   14  C7    D T 503       5.699  16.362  19.729  1.00 22.61     0.058 A 
HETATM   15  C9    D T 503       6.488  17.511  19.779  1.00 27.70     0.006 A 
HETATM   16  C10   D T 503       7.312  17.781  20.857  1.00 31.74     0.017 A 
HETATM   17  C24   D T 503       7.387  16.906  21.962  1.00 37.04     0.056 A 
HETATM   18  C11   D T 503       6.583  15.750  21.900  1.00 28.36     0.017 A 
HETATM   19  C12   D T 503       5.766  15.496  20.818  1.00 32.17     0.006 A 
BRANCH  17  20
HETATM   20  N17   D T 503       8.198  17.149  23.049  1.00 37.09    -0.344 N 
HETATM   21  C18   D T 503       9.441  17.895  22.827  1.00 40.90     0.137 C 
HETATM   22  C19   D T 503      10.693  17.333  23.495  1.00 43.74     0.274 C 
HETATM   23  N20   D T 503      10.543  16.119  24.269  1.00 46.06     0.143 N 
HETATM   24  C21   D T 503       9.345  16.245  25.058  1.00 48.57     0.274 C 
HETATM   25  C23   D T 503      11.712  15.766  25.048  1.00 42.63     0.286 C 
HETATM   26  C22   D T 503       8.081  16.282  24.214  1.00 38.35     0.137 C 
ENDBRANCH  17  20
ENDBRANCH  12  14
ENDBRANCH   3  11
BRANCH   9  27
HETATM   27  C20   D T 503       7.434  11.151  13.805  1.00 35.68     0.216 C 
BRANCH  27  28
HETATM   28  C27   D T 503       6.941   9.786  14.251  1.00 27.52     0.014 A 
HETATM   29  C28   D T 503       5.801   9.663  15.034  1.00 32.25    -0.001 A 
HETATM   30  C31   D T 503       5.355   8.410  15.439  1.00 34.44    -0.000 A 
HETATM   31  C35   D T 503       6.050   7.271  15.059  1.00 27.33    -0.000 A 
HETATM   32  C33   D T 503       7.194   7.390  14.274  1.00 33.54    -0.000 A 
HETATM   33  C29   D T 503       7.640   8.639  13.873  1.00 30.45    -0.001 A 
ENDBRANCH  27  28
BRANCH  27  34
HETATM   34  O34   D T 503       8.487  11.051  12.892  1.00 37.36    -0.340 OA
HETATM   35  C36   D T 503       9.266  12.221  12.796  1.00 32.21     0.175 C 
ENDBRANCH  27  34
ENDBRANCH   9  27
TORSDOF 6
ENDMDL
MODEL 3
REMARK VINA RESULT:    -7.305      2.195      3.896
REMARK INTER + INTRA:         -10.768
REMARK INTER:                 -10.155
REMARK INTRA:                  -0.614
REMARK UNBOUND:                -0.901
REMARK  6 active torsions:
REMARK  status: ('A' for Active; 'I' for Inactive)
REMARK       I    between atoms: N1_1  and  C25_25 
REMARK    1  A    between atoms: C3_3  and  N5_5 
REMARK       I    between atoms: N5_5  and  C6_6 
REMARK    2  A    between atoms: C6_6  and  C7_7 
REMARK    3  A    between atoms: N17_17  and  C24_24 
REMARK    4  A    between atoms: C25_25  and  C20_32 
REMARK    5  A    between atoms: C27_27  and  C20_32 
REMARK    6  A    between atoms: C20_32  and  O34_35 
ROOT
HETATM    1  N1    D T 503       6.922  14.764  20.044  1.00 24.46    -0.308 N 
HETATM    2  N2    D T 503       7.285  11.201  19.854  1.00 19.39    -0.149 NA
HETATM    3  C3    D T 503       7.658  11.863  17.858  1.00 31.01     0.186 A 
HETATM    4  N4    D T 503       7.555  10.777  18.610  1.00 27.54    -0.129 NA
HETATM    5  C13   D T 503       7.213  12.530  19.902  1.00 24.96     0.104 A 
HETATM    6  C14   D T 503       7.441  13.017  18.649  1.00 19.25     0.055 A 
HETATM    7  C15   D T 503       7.367  14.508  18.659  1.00 26.07     0.136 C 
HETATM    8  C16   D T 503       6.957  13.582  20.912  1.00 21.12     0.152 C 
HETATM    9  C25   D T 503       6.520  15.989  20.431  1.00 30.07     0.266 C 
HETATM   10  O26   D T 503       6.149  16.194  21.576  1.00 36.83    -0.269 OA
ENDROOT
BRANCH   3  11
HETATM   11  N5    D T 503       7.926  11.818  16.486  1.00 23.78    -0.187 NA
HETATM   12  C6    D T 503       7.220  12.336  15.438  1.00 25.92     0.281 C 
HETATM   13  O8    D T 503       6.189  12.967  15.572  1.00 35.07    -0.265 OA
BRANCH  12  14
HETATM   14  C7    D T 503       7.769  12.106  14.077  1.00 22.61     0.058 A 
HETATM   15  C9    D T 503       6.920  11.697  13.049  1.00 27.70     0.006 A 
HETATM   16  C10   D T 503       7.387  11.470  11.766  1.00 31.74     0.017 A 
HETATM   17  C24   D T 503       8.749  11.649  11.438  1.00 37.04     0.056 A 
HETATM   18  C11   D T 503       9.595  12.065  12.485  1.00 28.36     0.017 A 
HETATM   19  C12   D T 503       9.113  12.287  13.759  1.00 32.17     0.006 A 
BRANCH  17  20
HETATM   20  N17   D T 503       9.242  11.432  10.170  1.00 37.09    -0.344 N 
HETATM   21  C18   D T 503       8.697  12.236   9.072  1.00 40.90     0.137 C 
HETATM   22  C19   D T 503       8.335  11.481   7.796  1.00 43.74     0.274 C 
HETATM   23  N20   D T 503       8.549  10.049   7.791  1.00 46.06     0.143 N 
HETATM   24  C21   D T 503       9.830   9.793   8.399  1.00 48.57     0.274 C 
HETATM   25  C23   D T 503       8.395   9.432   6.490  1.00 42.63     0.286 C 
HETATM   26  C22   D T 503       9.866  10.148   9.876  1.00 38.35     0.137 C 
ENDBRANCH  17  20
ENDBRANCH  12  14
ENDBRANCH   3  11
BRANCH   9  27
HETATM   27  C20   D T 503       6.538  17.134  19.413  1.00 35.68     0.216 C 
BRANCH  27  28
HETATM   28  C27   D T 503       5.122  17.475  18.985  1.00 27.52     0.014 A 
HETATM   29  C28   D T 503       4.430  16.657  18.102  1.00 32.25    -0.001 A 
HETATM   30  C31   D T 503       3.133  16.975  17.713  1.00 34.44    -0.000 A 
HETATM   31  C35   D T 503       2.523  18.117  18.210  1.00 27.33    -0.000 A 
HETATM   32  C33   D T 503       3.213  18.941  19.095  1.00 33.54    -0.000 A 
HETATM   33  C29   D T 503       4.506  18.625  19.480  1.00 30.45    -0.001 A 
ENDBRANCH  27  28
BRANCH  27  34
HETATM   34  O34   D T 503       7.156  18.203  20.068  1.00 37.36    -0.340 OA
HETATM   35  C36   D T 503       8.306  17.834  20.794  1.00 32.21     0.175 C 
ENDBRANCH  27  34
ENDBRANCH   9  27
TORSDOF 6
ENDMDL
MODEL 4
REMARK VINA RESULT:    -7.218      2.763     10.428
REMARK INTER + INTRA:         -10.651
REMARK INTER:                  -9.880
REMARK INTRA:                  -0.771
REMARK UNBOUND:                -0.901
REMARK  6 active torsions:
REMARK  status: ('A' for Active; 'I' for Inactive)
REMARK       I    between atoms: N1_1  and  C25_25 
REMARK    1  A    between atoms: C3_3  and  N5_5 
REMARK       I    between atoms: N5_5  and  C6_6 
REMARK    2  A    between atoms: C6_6  and  C7_7 
REMARK    3  A    between atoms: N17_17  and  C24_24 
REMARK    4  A    between atoms: C25_25  and  C20_32 
REMARK    5  A    between atoms: C27_27  and  C20_32 
REMARK    6  A    between atoms: C20_32  and  O34_35 
ROOT
HETATM    1  N1    D T 503       6.763   9.887  11.304  1.00 24.46    -0.308 N 
HETATM    2  N2    D T 503       4.321   8.715  13.652  1.00 19.39    -0.149 NA
HETATM    3  C3    D T 503       4.994  10.560  14.489  1.00 31.01     0.186 A 
HETATM    4  N4    D T 503       4.190   9.530  14.710  1.00 27.54    -0.129 NA
HETATM    5  C13   D T 503       5.191   9.206  12.773  1.00 24.96     0.104 A 
HETATM    6  C14   D T 503       5.663  10.391  13.254  1.00 19.25     0.055 A 
HETATM    7  C15   D T 503       6.647  10.976  12.295  1.00 26.07     0.136 C 
HETATM    8  C16   D T 503       5.767   8.823  11.464  1.00 21.12     0.152 C 
HETATM    9  C25   D T 503       7.720   9.907  10.357  1.00 30.07     0.266 C 
HETATM   10  O26   D T 503       7.814   9.003   9.542  1.00 36.83    -0.269 OA
ENDROOT
BRANCH   3  11
HETATM   11  N5    D T 503       5.137  11.622  15.389  1.00 23.78    -0.187 NA
HETATM   12  C6    D T 503       5.139  12.969  15.161  1.00 25.92     0.281 C 
HETATM   13  O8    D T 503       4.994  13.461  14.059  1.00 35.07    -0.265 OA
BRANCH  12  14
HETATM   14  C7    D T 503       5.325  13.851  16.342  1.00 22.61     0.058 A 
HETATM   15  C9    D T 503       5.286  13.307  17.625  1.00 27.70     0.006 A 
HETATM   16  C10   D T 503       5.453  14.090  18.753  1.00 31.74     0.017 A 
HETATM   17  C24   D T 503       5.678  15.480  18.656  1.00 37.04     0.056 A 
HETATM   18  C11   D T 503       5.718  16.017  17.354  1.00 28.36     0.017 A 
HETATM   19  C12   D T 503       5.549  15.222  16.239  1.00 32.17     0.006 A 
BRANCH  17  20
HETATM   20  N17   D T 503       5.849  16.284  19.761  1.00 37.09    -0.344 N 
HETATM   21  C18   D T 503       6.546  17.561  19.583  1.00 40.90     0.137 C 
HETATM   22  C19   D T 503       7.610  17.900  20.623  1.00 43.74     0.274 C 
HETATM   23  N20   D T 503       7.842  16.932  21.673  1.00 46.06     0.143 N 
HETATM   24  C21   D T 503       6.559  16.467  22.135  1.00 48.57     0.274 C 
HETATM   25  C23   D T 503       8.699  17.409  22.739  1.00 42.63     0.286 C 
HETATM   26  C22   D T 503       5.805  15.670  21.083  1.00 38.35     0.137 C 
ENDBRANCH  17  20
ENDBRANCH  12  14
ENDBRANCH   3  11
BRANCH   9  27
HETATM   27  C20   D T 503       8.694  11.088  10.308  1.00 35.68     0.216 C 
BRANCH  27  28
HETATM   28  C27   D T 503       9.812  10.885  11.315  1.00 27.52     0.014 A 
HETATM   29  C28   D T 503      10.721   9.846  11.168  1.00 32.25    -0.001 A 
HETATM   30  C31   D T 503      11.743   9.666  12.093  1.00 34.44    -0.000 A 
HETATM   31  C35   D T 503      11.860  10.529  13.173  1.00 27.33    -0.000 A 
HETATM   32  C33   D T 503      10.951  11.572  13.324  1.00 33.54    -0.000 A 
HETATM   33  C29   D T 503       9.930  11.750  12.404  1.00 30.45    -0.001 A 
ENDBRANCH  27  28
BRANCH  27  34
HETATM   34  O34   D T 503       9.174  11.120   8.997  1.00 37.36    -0.340 OA
HETATM   35  C36   D T 503       8.483  12.020   8.162  1.00 32.21     0.175 C 
ENDBRANCH  27  34
ENDBRANCH   9  27
TORSDOF 6
ENDMDL
MODEL 5
REMARK VINA RESULT:    -7.162      2.408      4.223
REMARK INTER + INTRA:         -10.575
REMARK INTER:                  -9.892
REMARK INTRA:                  -0.684
REMARK UNBOUND:                -0.901
REMARK  6 active torsions:
REMARK  status: ('A' for Active; 'I' for Inactive)
REMARK       I    between atoms: N1_1  and  C25_25 
REMARK    1  A    between atoms: C3_3  and  N5_5 
REMARK       I    between atoms: N5_5  and  C6_6 
REMARK    2  A    between atoms: C6_6  and  C7_7 
REMARK    3  A    between atoms: N17_17  and  C24_24 
REMARK    4  A    between atoms: C25_25  and  C20_32 
REMARK    5  A    between atoms: C27_27  and  C20_32 
REMARK    6  A    between atoms: C20_32  and  O34_35 
ROOT
HETATM    1  N1    D T 503       7.259  13.330  19.322  1.00 24.46    -0.308 N 
HETATM    2  N2    D T 503       7.668   9.836  18.627  1.00 19.39    -0.149 NA
HETATM    3  C3    D T 503       7.733  10.754  16.701  1.00 31.01     0.186 A 
HETATM    4  N4    D T 503       7.764   9.579  17.314  1.00 27.54    -0.129 NA
HETATM    5  C13   D T 503       7.575  11.144  18.855  1.00 24.96     0.104 A 
HETATM    6  C14   D T 503       7.609  11.791  17.656  1.00 19.25     0.055 A 
HETATM    7  C15   D T 503       7.505  13.265  17.867  1.00 26.07     0.136 C 
HETATM    8  C16   D T 503       7.446  12.052  20.017  1.00 21.12     0.152 C 
HETATM    9  C25   D T 503       6.892  14.481  19.916  1.00 30.07     0.266 C 
HETATM   10  O26   D T 503       6.687  14.528  21.119  1.00 36.83    -0.269 OA
ENDROOT
BRANCH   3  11
HETATM   11  N5    D T 503       7.800  10.889  15.309  1.00 23.78    -0.187 NA
HETATM   12  C6    D T 503       6.878  11.384  14.433  1.00 25.92     0.281 C 
HETATM   13  O8    D T 503       5.795  11.818  14.774  1.00 35.07    -0.265 OA
BRANCH  12  14
HETATM   14  C7    D T 503       7.249  11.384  12.994  1.00 22.61     0.058 A 
HETATM   15  C9    D T 503       6.251  11.341  12.022  1.00 27.70     0.006 A 
HETATM   16  C10   D T 503       6.550  11.339  10.671  1.00 31.74     0.017 A 
HETATM   17  C24   D T 503       7.885  11.386  10.214  1.00 37.04     0.056 A 
HETATM   18  C11   D T 503       8.884  11.432  11.206  1.00 28.36     0.017 A 
HETATM   19  C12   D T 503       8.569  11.434  12.549  1.00 32.17     0.006 A 
BRANCH  17  20
HETATM   20  N17   D T 503       8.212  11.385   8.876  1.00 37.09    -0.344 N 
HETATM   21  C18   D T 503       7.150  11.676   7.907  1.00 40.90     0.137 C 
HETATM   22  C19   D T 503       7.076  10.757   6.691  1.00 43.74     0.274 C 
HETATM   23  N20   D T 503       8.044   9.684   6.612  1.00 46.06     0.143 N 
HETATM   24  C21   D T 503       9.328  10.220   6.987  1.00 48.57     0.274 C 
HETATM   25  C23   D T 503       8.058   8.993   5.339  1.00 42.63     0.286 C 
HETATM   26  C22   D T 503       9.389  10.641   8.446  1.00 38.35     0.137 C 
ENDBRANCH  17  20
ENDBRANCH  12  14
ENDBRANCH   3  11
BRANCH   9  27
HETATM   27  C20   D T 503       6.738  15.742  19.061  1.00 35.68     0.216 C 
BRANCH  27  28
HETATM   28  C27   D T 503       5.509  15.628  18.176  1.00 27.52     0.014 A 
HETATM   29  C28   D T 503       4.281  15.259  18.710  1.00 32.25    -0.001 A 
HETATM   30  C31   D T 503       3.160  15.156  17.894  1.00 34.44    -0.000 A 
HETATM   31  C35   D T 503       3.263  15.423  16.537  1.00 27.33    -0.000 A 
HETATM   32  C33   D T 503       4.493  15.793  15.998  1.00 33.54    -0.000 A 
HETATM   33  C29   D T 503       5.611  15.893  16.810  1.00 30.45    -0.001 A 
ENDBRANCH  27  28
BRANCH  27  34
HETATM   34  O34   D T 503       6.627  16.797  19.971  1.00 37.36    -0.340 OA
HETATM   35  C36   D T 503       6.501  18.060  19.361  1.00 32.21     0.175 C 
ENDBRANCH  27  34
ENDBRANCH   9  27
TORSDOF 6
ENDMDL
MODEL 6
REMARK VINA RESULT:    -7.151      2.531      4.751
REMARK INTER + INTRA:         -10.561
REMARK INTER:                 -10.120
REMARK INTRA:                  -0.441
REMARK UNBOUND:                -0.901
REMARK  6 active torsions:
REMARK  status: ('A' for Active; 'I' for Inactive)
REMARK       I    between atoms: N1_1  and  C25_25 
REMARK    1  A    between atoms: C3_3  and  N5_5 
REMARK       I    between atoms: N5_5  and  C6_6 
REMARK    2  A    between atoms: C6_6  and  C7_7 
REMARK    3  A    between atoms: N17_17  and  C24_24 
REMARK    4  A    between atoms: C25_25  and  C20_32 
REMARK    5  A    between atoms: C27_27  and  C20_32 
REMARK    6  A    between atoms: C20_32  and  O34_35 
ROOT
HETATM    1  N1    D T 503       6.020  13.502  17.987  1.00 24.46    -0.308 N 
HETATM    2  N2    D T 503       6.265   9.975  17.387  1.00 19.39    -0.149 NA
HETATM    3  C3    D T 503       6.562  10.846  15.460  1.00 31.01     0.186 A 
HETATM    4  N4    D T 503       6.462   9.685  16.092  1.00 27.54    -0.129 NA
HETATM    5  C13   D T 503       6.236  11.291  17.585  1.00 24.96     0.104 A 
HETATM    6  C14   D T 503       6.418  11.909  16.384  1.00 19.25     0.055 A 
HETATM    7  C15   D T 503       6.391  13.391  16.562  1.00 26.07     0.136 C 
HETATM    8  C16   D T 503       6.061  12.230  18.716  1.00 21.12     0.152 C 
HETATM    9  C25   D T 503       5.676  14.686  18.528  1.00 30.07     0.266 C 
HETATM   10  O26   D T 503       5.367  14.771  19.706  1.00 36.83    -0.269 OA
ENDROOT
BRANCH   3  11
HETATM   11  N5    D T 503       6.762  10.948  14.079  1.00 23.78    -0.187 NA
HETATM   12  C6    D T 503       7.814  11.470  13.383  1.00 25.92     0.281 C 
HETATM   13  O8    D T 503       8.800  11.942  13.914  1.00 35.07    -0.265 OA
BRANCH  12  14
HETATM   14  C7    D T 503       7.721  11.439  11.900  1.00 22.61     0.058 A 
HETATM   15  C9    D T 503       6.470  11.404  11.286  1.00 27.70     0.006 A 
HETATM   16  C10   D T 503       6.336  11.374   9.909  1.00 31.74     0.017 A 
HETATM   17  C24   D T 503       7.464  11.383   9.060  1.00 37.04     0.056 A 
HETATM   18  C11   D T 503       8.722  11.422   9.693  1.00 28.36     0.017 A 
HETATM   19  C12   D T 503       8.839  11.451  11.068  1.00 32.17     0.006 A 
BRANCH  17  20
HETATM   20  N17   D T 503       7.360  11.355   7.687  1.00 37.09    -0.344 N 
HETATM   21  C18   D T 503       6.315  12.168   7.058  1.00 40.90     0.137 C 
HETATM   22  C19   D T 503       5.495  11.487   5.966  1.00 43.74     0.274 C 
HETATM   23  N20   D T 503       5.812  10.108   5.663  1.00 46.06     0.143 N 
HETATM   24  C21   D T 503       7.247   9.985   5.618  1.00 48.57     0.274 C 
HETATM   25  C23   D T 503       5.152   9.595   4.480  1.00 42.63     0.286 C 
HETATM   26  C22   D T 503       7.902  10.207   6.971  1.00 38.35     0.137 C 
ENDBRANCH  17  20
ENDBRANCH  12  14
ENDBRANCH   3  11
BRANCH   9  27
HETATM   27  C20   D T 503       5.681  15.936  17.643  1.00 35.68     0.216 C 
BRANCH  27  28
HETATM   28  C27   D T 503       4.536  15.876  16.646  1.00 27.52     0.014 A 
HETATM   29  C28   D T 503       4.783  15.867  15.280  1.00 32.25    -0.001 A 
HETATM   30  C31   D T 503       3.730  15.812  14.373  1.00 34.44    -0.000 A 
HETATM   31  C35   D T 503       2.422  15.765  14.832  1.00 27.33    -0.000 A 
HETATM   32  C33   D T 503       2.171  15.774  16.202  1.00 33.54    -0.000 A 
HETATM   33  C29   D T 503       3.219  15.832  17.106  1.00 30.45    -0.001 A 
ENDBRANCH  27  28
BRANCH  27  34
HETATM   34  O34   D T 503       5.549  17.014  18.522  1.00 37.36    -0.340 OA
HETATM   35  C36   D T 503       6.775  17.473  19.042  1.00 32.21     0.175 C 
ENDBRANCH  27  34
ENDBRANCH   9  27
TORSDOF 6
ENDMDL
MODEL 7
REMARK VINA RESULT:    -7.071     16.669     18.986
REMARK INTER + INTRA:         -10.452
REMARK INTER:                 -10.261
REMARK INTRA:                  -0.191
REMARK UNBOUND:                -0.901
REMARK  6 active torsions:
REMARK  status: ('A' for Active; 'I' for Inactive)
REMARK       I    between atoms: N1_1  and  C25_25 
REMARK    1  A    between atoms: C3_3  and  N5_5 
REMARK       I    between atoms: N5_5  and  C6_6 
REMARK    2  A    between atoms: C6_6  and  C7_7 
REMARK    3  A    between atoms: N17_17  and  C24_24 
REMARK    4  A    between atoms: C25_25  and  C20_32 
REMARK    5  A    between atoms: C27_27  and  C20_32 
REMARK    6  A    between atoms: C20_32  and  O34_35 
ROOT
HETATM    1  N1    D T 503      -1.294  28.293  22.400  1.00 24.46    -0.308 N 
HETATM    2  N2    D T 503      -4.424  29.990  22.821  1.00 19.39    -0.149 NA
HETATM    3  C3    D T 503      -4.591  29.074  20.900  1.00 31.01     0.186 A 
HETATM    4  N4    D T 503      -5.227  29.862  21.754  1.00 27.54    -0.129 NA
HETATM    5  C13   D T 503      -3.296  29.303  22.657  1.00 24.96     0.104 A 
HETATM    6  C14   D T 503      -3.339  28.692  21.439  1.00 19.25     0.055 A 
HETATM    7  C15   D T 503      -2.088  27.910  21.215  1.00 26.07     0.136 C 
HETATM    8  C16   D T 503      -2.051  29.036  23.413  1.00 21.12     0.152 C 
HETATM    9  C25   D T 503       0.011  27.974  22.498  1.00 30.07     0.266 C 
HETATM   10  O26   D T 503       0.663  28.296  23.478  1.00 36.83    -0.269 OA
ENDROOT
BRANCH   3  11
HETATM   11  N5    D T 503      -5.117  28.718  19.653  1.00 23.78    -0.187 NA
HETATM   12  C6    D T 503      -6.106  27.829  19.341  1.00 25.92     0.281 C 
HETATM   13  O8    D T 503      -6.717  27.189  20.174  1.00 35.07    -0.265 OA
BRANCH  12  14
HETATM   14  C7    D T 503      -6.434  27.665  17.902  1.00 22.61     0.058 A 
HETATM   15  C9    D T 503      -5.790  28.455  16.951  1.00 27.70     0.006 A 
HETATM   16  C10   D T 503      -6.064  28.337  15.599  1.00 31.74     0.017 A 
HETATM   17  C24   D T 503      -7.007  27.402  15.120  1.00 37.04     0.056 A 
HETATM   18  C11   D T 503      -7.648  26.607  16.091  1.00 28.36     0.017 A 
HETATM   19  C12   D T 503      -7.363  26.738  17.435  1.00 32.17     0.006 A 
BRANCH  17  20
HETATM   20  N17   D T 503      -7.298  27.262  13.781  1.00 37.09    -0.344 N 
HETATM   21  C18   D T 503      -6.262  26.707  12.905  1.00 40.90     0.137 C 
HETATM   22  C19   D T 503      -6.036  27.434  11.582  1.00 43.74     0.274 C 
HETATM   23  N20   D T 503      -6.850  28.602  11.321  1.00 46.06     0.143 N 
HETATM   24  C21   D T 503      -8.203  28.293  11.710  1.00 48.57     0.274 C 
HETATM   25  C23   D T 503      -6.741  29.109   9.969  1.00 42.63     0.286 C 
HETATM   26  C22   D T 503      -8.355  28.086  13.208  1.00 38.35     0.137 C 
ENDBRANCH  17  20
ENDBRANCH  12  14
ENDBRANCH   3  11
BRANCH   9  27
HETATM   27  C20   D T 503       0.671  27.190  21.360  1.00 35.68     0.216 C 
BRANCH  27  28
HETATM   28  C27   D T 503       1.809  27.997  20.760  1.00 27.52     0.014 A 
HETATM   29  C28   D T 503       2.412  29.019  21.481  1.00 32.25    -0.001 A 
HETATM   30  C31   D T 503       3.454  29.755  20.926  1.00 34.44    -0.000 A 
HETATM   31  C35   D T 503       3.896  29.469  19.643  1.00 27.33    -0.000 A 
HETATM   32  C33   D T 503       3.294  28.445  18.917  1.00 33.54    -0.000 A 
HETATM   33  C29   D T 503       2.254  27.714  19.468  1.00 30.45    -0.001 A 
ENDBRANCH  27  28
BRANCH  27  34
HETATM   34  O34   D T 503       1.126  26.003  21.941  1.00 37.36    -0.340 OA
HETATM   35  C36   D T 503       0.117  25.273  22.600  1.00 32.21     0.175 C 
ENDBRANCH  27  34
ENDBRANCH   9  27
TORSDOF 6
ENDMDL
MODEL 8
REMARK VINA RESULT:    -6.860      3.124     11.330
REMARK INTER + INTRA:         -10.168
REMARK INTER:                  -8.967
REMARK INTRA:                  -1.200
REMARK UNBOUND:                -0.901
REMARK  6 active torsions:
REMARK  status: ('A' for Active; 'I' for Inactive)
REMARK       I    between atoms: N1_1  and  C25_25 
REMARK    1  A    between atoms: C3_3  and  N5_5 
REMARK       I    between atoms: N5_5  and  C6_6 
REMARK    2  A    between atoms: C6_6  and  C7_7 
REMARK    3  A    between atoms: N17_17  and  C24_24 
REMARK    4  A    between atoms: C25_25  and  C20_32 
REMARK    5  A    between atoms: C27_27  and  C20_32 
REMARK    6  A    between atoms: C20_32  and  O34_35 
ROOT
HETATM    1  N1    D T 503       5.555   9.345  10.313  1.00 24.46    -0.308 N 
HETATM    2  N2    D T 503       3.874   7.812  13.085  1.00 19.39    -0.149 NA
HETATM    3  C3    D T 503       4.705   9.597  13.911  1.00 31.01     0.186 A 
HETATM    4  N4    D T 503       4.016   8.508  14.223  1.00 27.54    -0.129 NA
HETATM    5  C13   D T 503       4.460   8.435  12.065  1.00 24.96     0.104 A 
HETATM    6  C14   D T 503       5.016   9.589  12.530  1.00 19.25     0.055 A 
HETATM    7  C15   D T 503       5.687  10.320  11.414  1.00 26.07     0.136 C 
HETATM    8  C16   D T 503       4.666   8.218  10.615  1.00 21.12     0.152 C 
HETATM    9  C25   D T 503       6.217   9.511   9.152  1.00 30.07     0.266 C 
HETATM   10  O26   D T 503       6.107   8.700   8.246  1.00 36.83    -0.269 OA
ENDROOT
BRANCH   3  11
HETATM   11  N5    D T 503       5.062  10.569  14.852  1.00 23.78    -0.187 NA
HETATM   12  C6    D T 503       6.297  10.958  15.284  1.00 25.92     0.281 C 
HETATM   13  O8    D T 503       7.334  10.481  14.866  1.00 35.07    -0.265 OA
BRANCH  12  14
HETATM   14  C7    D T 503       6.343  12.026  16.316  1.00 22.61     0.058 A 
HETATM   15  C9    D T 503       5.162  12.465  16.912  1.00 27.70     0.006 A 
HETATM   16  C10   D T 503       5.156  13.457  17.876  1.00 31.74     0.017 A 
HETATM   17  C24   D T 503       6.354  14.068  18.307  1.00 37.04     0.056 A 
HETATM   18  C11   D T 503       7.541  13.614  17.700  1.00 28.36     0.017 A 
HETATM   19  C12   D T 503       7.529  12.623  16.740  1.00 32.17     0.006 A 
BRANCH  17  20
HETATM   20  N17   D T 503       6.379  15.057  19.266  1.00 37.09    -0.344 N 
HETATM   21  C18   D T 503       7.344  14.929  20.362  1.00 40.90     0.137 C 
HETATM   22  C19   D T 503       6.811  15.204  21.766  1.00 43.74     0.274 C 
HETATM   23  N20   D T 503       5.411  15.550  21.887  1.00 46.06     0.143 N 
HETATM   24  C21   D T 503       5.097  16.489  20.840  1.00 48.57     0.274 C 
HETATM   25  C23   D T 503       5.027  16.008  23.206  1.00 42.63     0.286 C 
HETATM   26  C22   D T 503       5.190  15.878  19.451  1.00 38.35     0.137 C 
ENDBRANCH  17  20
ENDBRANCH  12  14
ENDBRANCH   3  11
BRANCH   9  27
HETATM   27  C20   D T 503       7.112  10.741   8.977  1.00 35.68     0.216 C 
BRANCH  27  28
HETATM   28  C27   D T 503       8.524  10.314   8.616  1.00 27.52     0.014 A 
HETATM   29  C28   D T 503       9.286   9.561   9.500  1.00 32.25    -0.001 A 
HETATM   30  C31   D T 503      10.578   9.172   9.164  1.00 34.44    -0.000 A 
HETATM   31  C35   D T 503      11.114   9.537   7.938  1.00 27.33    -0.000 A 
HETATM   32  C33   D T 503      10.353  10.292   7.049  1.00 33.54    -0.000 A 
HETATM   33  C29   D T 503       9.067  10.681   7.384  1.00 30.45    -0.001 A 
ENDBRANCH  27  28
BRANCH  27  34
HETATM   34  O34   D T 503       6.519  11.490   7.957  1.00 37.36    -0.340 OA
HETATM   35  C36   D T 503       5.570  12.423   8.418  1.00 32.21     0.175 C 
ENDBRANCH  27  34
ENDBRANCH   9  27
TORSDOF 6
ENDMDL
MODEL 9
REMARK VINA RESULT:    -6.788      3.088     11.271
REMARK INTER + INTRA:         -10.070
REMARK INTER:                  -9.081
REMARK INTRA:                  -0.989
REMARK UNBOUND:                -0.901
REMARK  6 active torsions:
REMARK  status: ('A' for Active; 'I' for Inactive)
REMARK       I    between atoms: N1_1  and  C25_25 
REMARK    1  A    between atoms: C3_3  and  N5_5 
REMARK       I    between atoms: N5_5  and  C6_6 
REMARK    2  A    between atoms: C6_6  and  C7_7 
REMARK    3  A    between atoms: N17_17  and  C24_24 
REMARK    4  A    between atoms: C25_25  and  C20_32 
REMARK    5  A    between atoms: C27_27  and  C20_32 
REMARK    6  A    between atoms: C20_32  and  O34_35 
ROOT
HETATM    1  N1    D T 503       9.028   9.709  10.619  1.00 24.46    -0.308 N 
HETATM    2  N2    D T 503      11.556  11.144  12.718  1.00 19.39    -0.149 NA
HETATM    3  C3    D T 503       9.727  11.668  13.686  1.00 31.01     0.186 A 
HETATM    4  N4    D T 503      11.042  11.818  13.758  1.00 27.54    -0.129 NA
HETATM    5  C13   D T 503      10.596  10.577  11.992  1.00 24.96     0.104 A 
HETATM    6  C14   D T 503       9.394  10.878  12.560  1.00 19.25     0.055 A 
HETATM    7  C15   D T 503       8.287  10.260  11.772  1.00 26.07     0.136 C 
HETATM    8  C16   D T 503      10.486   9.740  10.775  1.00 21.12     0.152 C 
HETATM    9  C25   D T 503       8.381   9.238   9.536  1.00 30.07     0.266 C 
HETATM   10  O26   D T 503       8.999   8.787   8.585  1.00 36.83    -0.269 OA
ENDROOT
BRANCH   3  11
HETATM   11  N5    D T 503       8.842  12.244  14.605  1.00 23.78    -0.187 NA
HETATM   12  C6    D T 503       7.887  11.660  15.385  1.00 25.92     0.281 C 
HETATM   13  O8    D T 503       7.669  10.464  15.394  1.00 35.07    -0.265 OA
BRANCH  12  14
HETATM   14  C7    D T 503       7.093  12.558  16.263  1.00 22.61     0.058 A 
HETATM   15  C9    D T 503       6.939  12.247  17.613  1.00 27.70     0.006 A 
HETATM   16  C10   D T 503       6.207  13.053  18.467  1.00 31.74     0.017 A 
HETATM   17  C24   D T 503       5.587  14.236  18.010  1.00 37.04     0.056 A 
HETATM   18  C11   D T 503       5.753  14.541  16.644  1.00 28.36     0.017 A 
HETATM   19  C12   D T 503       6.485  13.726  15.805  1.00 32.17     0.006 A 
BRANCH  17  20
HETATM   20  N17   D T 503       4.855  15.058  18.837  1.00 37.09    -0.344 N 
HETATM   21  C18   D T 503       3.673  15.721  18.278  1.00 40.90     0.137 C 
HETATM   22  C19   D T 503       3.514  17.205  18.602  1.00 43.74     0.274 C 
HETATM   23  N20   D T 503       4.543  17.819  19.414  1.00 46.06     0.143 N 
HETATM   24  C21   D T 503       4.855  16.913  20.490  1.00 48.57     0.274 C 
HETATM   25  C23   D T 503       4.221  19.158  19.863  1.00 42.63     0.286 C 
HETATM   26  C22   D T 503       5.507  15.627  20.010  1.00 38.35     0.137 C 
ENDBRANCH  17  20
ENDBRANCH  12  14
ENDBRANCH   3  11
BRANCH   9  27
HETATM   27  C20   D T 503       6.850   9.267   9.514  1.00 35.68     0.216 C 
BRANCH  27  28
HETATM   28  C27   D T 503       6.360  10.581   8.931  1.00 27.52     0.014 A 
HETATM   29  C28   D T 503       6.816  11.024   7.696  1.00 32.25    -0.001 A 
HETATM   30  C31   D T 503       6.364  12.228   7.168  1.00 34.44    -0.000 A 
HETATM   31  C35   D T 503       5.450  12.995   7.875  1.00 27.33    -0.000 A 
HETATM   32  C33   D T 503       4.991  12.554   9.114  1.00 33.54    -0.000 A 
HETATM   33  C29   D T 503       5.443  11.356   9.642  1.00 30.45    -0.001 A 
ENDBRANCH  27  28
BRANCH  27  34
HETATM   34  O34   D T 503       6.469   8.176   8.729  1.00 37.36    -0.340 OA
HETATM   35  C36   D T 503       5.380   7.453   9.255  1.00 32.21     0.175 C 
ENDBRANCH  27  34
ENDBRANCH   9  27
TORSDOF 6
ENDMDL
