MODEL 1
REMARK VINA RESULT:      -7.0      0.000      0.000
REMARK  6 active torsions:
REMARK  status: ('A' for Active; 'I' for Inactive)
REMARK       I    between atoms: N1_1  and  C25_25 
REMARK    1  A    between atoms: C3_3  and  N5_5 
REMARK       I    between atoms: N5_5  and  C6_6 
REMARK    2  A    between atoms: C6_6  and  C7_7 
REMARK    3  A    between atoms: N17_17  and  C24_24 
REMARK    4  A    between atoms: C25_25  and  C20_32 
REMARK    5  A    between atoms: C27_27  and  C20_32 
REMARK    6  A    between atoms: C20_32  and  O34_35 
ROOT
HETATM    1  N1    D T 510     -23.108 -15.162 -40.326  1.00 27.33    -0.308 N 
HETATM    2  N2    D T 510     -20.216 -17.235 -39.828  1.00 25.81    -0.149 NA
HETATM    3  C3    D T 510     -20.872 -16.782 -37.857  1.00 28.92     0.186 A 
HETATM    4  N4    D T 510     -19.933 -17.427 -38.530  1.00 26.85    -0.129 NA
HETATM    5  C13   D T 510     -21.310 -16.491 -39.987  1.00 21.37     0.104 A 
HETATM    6  C14   D T 510     -21.778 -16.170 -38.752  1.00 21.42     0.055 A 
HETATM    7  C15   D T 510     -23.003 -15.333 -38.863  1.00 23.53     0.136 A 
HETATM    8  C16   D T 510     -22.130 -15.943 -41.096  1.00 21.29     0.152 A 
HETATM    9  C25   D T 510     -24.039 -14.343 -40.851  1.00 31.44     0.266 C 
HETATM   10  O26   D T 510     -24.143 -14.184 -42.057  1.00 37.82    -0.269 OA
ENDROOT
BRANCH   3  11
HETATM   11  N5    D T 510     -20.930 -16.748 -36.465  1.00 21.79    -0.187 NA
HETATM   12  C6    D T 510     -21.699 -17.513 -35.634  1.00 24.46     0.281 C 
HETATM   13  O8    D T 510     -22.467 -18.365 -36.039  1.00 47.57    -0.265 OA
BRANCH  12  14
HETATM   14  C7    D T 510     -21.559 -17.298 -34.173  1.00 27.20     0.058 A 
HETATM   15  C9    D T 510     -22.460 -17.897 -33.291  1.00 26.30     0.006 A 
HETATM   16  C10   D T 510     -22.369 -17.708 -31.924  1.00 29.02     0.017 A 
HETATM   17  C24   D T 510     -21.361 -16.896 -31.359  1.00 25.79     0.056 A 
HETATM   18  C11   D T 510     -20.464 -16.293 -32.261  1.00 33.12     0.017 A 
HETATM   19  C12   D T 510     -20.569 -16.490 -33.620  1.00 29.35     0.006 A 
BRANCH  17  20
HETATM   20  N17   D T 510     -21.243 -16.682 -30.006  1.00 32.10    -0.344 N 
HETATM   21  C18   D T 510     -22.047 -17.481 -29.086  1.00 33.06     0.137 C 
HETATM   22  C19   D T 510     -21.405 -17.550 -27.707  1.00 45.16     0.274 C 
HETATM   23  N20   D T 510     -21.048 -16.264 -27.148  1.00 53.73     0.143 N 
HETATM   24  C21   D T 510     -20.176 -15.575 -28.079  1.00 50.63     0.274 C 
HETATM   25  C23   D T 510     -20.522 -16.344 -25.800  1.00 47.36     0.286 C 
HETATM   26  C22   D T 510     -20.732 -15.418 -29.492  1.00 35.17     0.137 C 
ENDBRANCH  17  20
ENDBRANCH  12  14
ENDBRANCH   3  11
BRANCH   9  27
HETATM   27  C20   D T 510     -24.968 -13.596 -39.889  1.00 31.66     0.216 C 
BRANCH  27  28
HETATM   28  C27   D T 510     -24.525 -12.145 -39.852  1.00 37.14     0.014 A 
HETATM   29  C28   D T 510     -25.154 -11.180 -40.629  1.00 32.75    -0.001 A 
HETATM   30  C31   D T 510     -24.743  -9.853 -40.577  1.00 32.33    -0.000 A 
HETATM   31  C35   D T 510     -23.700  -9.484 -39.740  1.00 38.48    -0.000 A 
HETATM   32  C33   D T 510     -23.068 -10.444 -38.958  1.00 37.62    -0.000 A 
HETATM   33  C29   D T 510     -23.479 -11.766 -39.012  1.00 37.41    -0.001 A 
ENDBRANCH  27  28
BRANCH  27  34
HETATM   34  O34   D T 510     -26.265 -13.753 -40.384  1.00 47.15    -0.340 OA
HETATM   35  C36   D T 510     -26.918 -14.906 -39.901  1.00 30.29     0.175 C 
ENDBRANCH  27  34
ENDBRANCH   9  27
TORSDOF 6
ENDMDL
MODEL 2
REMARK VINA RESULT:      -6.7      6.801     10.918
REMARK  6 active torsions:
REMARK  status: ('A' for Active; 'I' for Inactive)
REMARK       I    between atoms: N1_1  and  C25_25 
REMARK    1  A    between atoms: C3_3  and  N5_5 
REMARK       I    between atoms: N5_5  and  C6_6 
REMARK    2  A    between atoms: C6_6  and  C7_7 
REMARK    3  A    between atoms: N17_17  and  C24_24 
REMARK    4  A    between atoms: C25_25  and  C20_32 
REMARK    5  A    between atoms: C27_27  and  C20_32 
REMARK    6  A    between atoms: C20_32  and  O34_35 
ROOT
HETATM    1  N1    D T 510     -26.339 -19.810 -39.276  1.00 27.33    -0.308 N 
HETATM    2  N2    D T 510     -26.162 -16.236 -38.949  1.00 25.81    -0.149 NA
HETATM    3  C3    D T 510     -24.281 -16.772 -39.785  1.00 28.92     0.186 A 
HETATM    4  N4    D T 510     -24.986 -15.736 -39.360  1.00 26.85    -0.129 NA
HETATM    5  C13   D T 510     -26.216 -17.558 -39.110  1.00 21.37     0.104 A 
HETATM    6  C14   D T 510     -25.033 -17.960 -39.647  1.00 21.42     0.055 A 
HETATM    7  C15   D T 510     -25.030 -19.434 -39.850  1.00 23.53     0.136 A 
HETATM    8  C16   D T 510     -27.174 -18.667 -38.881  1.00 21.29     0.152 A 
HETATM    9  C25   D T 510     -26.680 -21.106 -39.150  1.00 31.44     0.266 C 
HETATM   10  O26   D T 510     -27.755 -21.441 -38.677  1.00 37.82    -0.269 OA
ENDROOT
BRANCH   3  11
HETATM   11  N5    D T 510     -22.992 -16.661 -40.302  1.00 21.79    -0.187 NA
HETATM   12  C6    D T 510     -21.811 -16.604 -39.619  1.00 24.46     0.281 C 
HETATM   13  O8    D T 510     -21.745 -16.649 -38.404  1.00 47.57    -0.265 OA
BRANCH  12  14
HETATM   14  C7    D T 510     -20.560 -16.510 -40.410  1.00 27.20     0.058 A 
HETATM   15  C9    D T 510     -19.360 -16.984 -39.877  1.00 26.30     0.006 A 
HETATM   16  C10   D T 510     -18.172 -16.900 -40.580  1.00 29.02     0.017 A 
HETATM   17  C24   D T 510     -18.118 -16.325 -41.868  1.00 25.79     0.056 A 
HETATM   18  C11   D T 510     -19.335 -15.844 -42.390  1.00 33.12     0.017 A 
HETATM   19  C12   D T 510     -20.510 -15.933 -41.677  1.00 29.35     0.006 A 
BRANCH  17  20
HETATM   20  N17   D T 510     -16.955 -16.219 -42.593  1.00 32.10    -0.344 N 
HETATM   21  C18   D T 510     -16.887 -16.823 -43.920  1.00 33.06     0.137 C 
HETATM   22  C19   D T 510     -15.829 -16.146 -44.782  1.00 45.16     0.274 C 
HETATM   23  N20   D T 510     -14.527 -16.041 -44.159  1.00 53.73     0.143 N 
HETATM   24  C21   D T 510     -14.669 -15.348 -42.894  1.00 50.63     0.274 C 
HETATM   25  C23   D T 510     -13.513 -15.476 -45.028  1.00 47.36     0.286 C 
HETATM   26  C22   D T 510     -15.684 -15.959 -41.931  1.00 35.17     0.137 C 
ENDBRANCH  17  20
ENDBRANCH  12  14
ENDBRANCH   3  11
BRANCH   9  27
HETATM   27  C20   D T 510     -25.672 -22.165 -39.605  1.00 31.66     0.216 C 
BRANCH  27  28
HETATM   28  C27   D T 510     -25.609 -23.235 -38.531  1.00 37.14     0.014 A 
HETATM   29  C28   D T 510     -26.454 -24.338 -38.562  1.00 32.75    -0.001 A 
HETATM   30  C31   D T 510     -26.378 -25.315 -37.575  1.00 32.33    -0.000 A 
HETATM   31  C35   D T 510     -25.449 -25.195 -36.553  1.00 38.48    -0.000 A 
HETATM   32  C33   D T 510     -24.598 -24.095 -36.517  1.00 37.62    -0.000 A 
HETATM   33  C29   D T 510     -24.676 -23.123 -37.501  1.00 37.41    -0.001 A 
ENDBRANCH  27  28
BRANCH  27  34
HETATM   34  O34   D T 510     -26.133 -22.655 -40.829  1.00 47.15    -0.340 OA
HETATM   35  C36   D T 510     -25.103 -23.113 -41.677  1.00 30.29     0.175 C 
ENDBRANCH  27  34
ENDBRANCH   9  27
TORSDOF 6
ENDMDL
MODEL 3
REMARK VINA RESULT:      -6.6      7.757     12.525
REMARK  6 active torsions:
REMARK  status: ('A' for Active; 'I' for Inactive)
REMARK       I    between atoms: N1_1  and  C25_25 
REMARK    1  A    between atoms: C3_3  and  N5_5 
REMARK       I    between atoms: N5_5  and  C6_6 
REMARK    2  A    between atoms: C6_6  and  C7_7 
REMARK    3  A    between atoms: N17_17  and  C24_24 
REMARK    4  A    between atoms: C25_25  and  C20_32 
REMARK    5  A    between atoms: C27_27  and  C20_32 
REMARK    6  A    between atoms: C20_32  and  O34_35 
ROOT
HETATM    1  N1    D T 510     -24.217 -19.312 -27.506  1.00 27.33    -0.308 N 
HETATM    2  N2    D T 510     -26.683 -21.924 -27.438  1.00 25.81    -0.149 NA
HETATM    3  C3    D T 510     -26.122 -21.797 -29.485  1.00 28.92     0.186 A 
HETATM    4  N4    D T 510     -26.927 -22.438 -28.653  1.00 26.85    -0.129 NA
HETATM    5  C13   D T 510     -25.743 -20.981 -27.484  1.00 21.37     0.104 A 
HETATM    6  C14   D T 510     -25.342 -20.856 -28.777  1.00 21.42     0.055 A 
HETATM    7  C15   D T 510     -24.290 -19.811 -28.895  1.00 23.53     0.136 A 
HETATM    8  C16   D T 510     -25.036 -20.070 -26.550  1.00 21.29     0.152 A 
HETATM    9  C25   D T 510     -23.450 -18.246 -27.204  1.00 31.44     0.266 C 
HETATM   10  O26   D T 510     -23.376 -17.815 -26.065  1.00 37.82    -0.269 OA
ENDROOT
BRANCH   3  11
HETATM   11  N5    D T 510     -26.072 -22.055 -30.854  1.00 21.79    -0.187 NA
HETATM   12  C6    D T 510     -25.186 -22.842 -31.532  1.00 24.46     0.281 C 
HETATM   13  O8    D T 510     -24.284 -23.449 -30.984  1.00 47.57    -0.265 OA
BRANCH  12  14
HETATM   14  C7    D T 510     -25.361 -22.973 -32.999  1.00 27.20     0.058 A 
HETATM   15  C9    D T 510     -25.218 -24.220 -33.610  1.00 26.30     0.006 A 
HETATM   16  C10   D T 510     -25.360 -24.377 -34.977  1.00 29.02     0.017 A 
HETATM   17  C24   D T 510     -25.654 -23.281 -35.817  1.00 25.79     0.056 A 
HETATM   18  C11   D T 510     -25.789 -22.028 -35.187  1.00 33.12     0.017 A 
HETATM   19  C12   D T 510     -25.642 -21.888 -33.825  1.00 29.35     0.006 A 
BRANCH  17  20
HETATM   20  N17   D T 510     -25.797 -23.399 -37.179  1.00 32.10    -0.344 N 
HETATM   21  C18   D T 510     -26.357 -24.628 -37.731  1.00 33.06     0.137 C 
HETATM   22  C19   D T 510     -26.976 -24.387 -39.102  1.00 45.16     0.274 C 
HETATM   23  N20   D T 510     -26.108 -23.709 -40.041  1.00 53.73     0.143 N 
HETATM   24  C21   D T 510     -25.672 -22.458 -39.454  1.00 50.63     0.274 C 
HETATM   25  C23   D T 510     -26.682 -23.569 -41.364  1.00 47.36     0.286 C 
HETATM   26  C22   D T 510     -25.004 -22.581 -38.086  1.00 35.17     0.137 C 
ENDBRANCH  17  20
ENDBRANCH  12  14
ENDBRANCH   3  11
BRANCH   9  27
HETATM   27  C20   D T 510     -22.674 -17.572 -28.339  1.00 31.66     0.216 C 
BRANCH  27  28
HETATM   28  C27   D T 510     -21.476 -16.870 -27.726  1.00 37.14     0.014 A 
HETATM   29  C28   D T 510     -20.555 -17.564 -26.949  1.00 32.75    -0.001 A 
HETATM   30  C31   D T 510     -19.457 -16.909 -26.402  1.00 32.33    -0.000 A 
HETATM   31  C35   D T 510     -19.273 -15.554 -26.635  1.00 38.48    -0.000 A 
HETATM   32  C33   D T 510     -20.188 -14.855 -27.414  1.00 37.62    -0.000 A 
HETATM   33  C29   D T 510     -21.282 -15.509 -27.958  1.00 37.41    -0.001 A 
ENDBRANCH  27  28
BRANCH  27  34
HETATM   34  O34   D T 510     -22.310 -18.583 -29.231  1.00 47.15    -0.340 OA
HETATM   35  C36   D T 510     -22.028 -18.115 -30.531  1.00 30.29     0.175 C 
ENDBRANCH  27  34
ENDBRANCH   9  27
TORSDOF 6
ENDMDL
MODEL 4
REMARK VINA RESULT:      -6.5      6.616      9.264
REMARK  6 active torsions:
REMARK  status: ('A' for Active; 'I' for Inactive)
REMARK       I    between atoms: N1_1  and  C25_25 
REMARK    1  A    between atoms: C3_3  and  N5_5 
REMARK       I    between atoms: N5_5  and  C6_6 
REMARK    2  A    between atoms: C6_6  and  C7_7 
REMARK    3  A    between atoms: N17_17  and  C24_24 
REMARK    4  A    between atoms: C25_25  and  C20_32 
REMARK    5  A    between atoms: C27_27  and  C20_32 
REMARK    6  A    between atoms: C20_32  and  O34_35 
ROOT
HETATM    1  N1    D T 510     -21.472 -16.769 -41.889  1.00 27.33    -0.308 N 
HETATM    2  N2    D T 510     -24.690 -16.259 -40.375  1.00 25.81    -0.149 NA
HETATM    3  C3    D T 510     -23.627 -14.468 -39.944  1.00 28.92     0.186 A 
HETATM    4  N4    D T 510     -24.788 -15.073 -39.753  1.00 26.85    -0.129 NA
HETATM    5  C13   D T 510     -23.500 -16.411 -40.956  1.00 21.37     0.104 A 
HETATM    6  C14   D T 510     -22.772 -15.289 -40.714  1.00 21.42     0.055 A 
HETATM    7  C15   D T 510     -21.426 -15.400 -41.337  1.00 23.53     0.136 A 
HETATM    8  C16   D T 510     -22.782 -17.425 -41.767  1.00 21.29     0.152 A 
HETATM    9  C25   D T 510     -20.373 -17.319 -42.442  1.00 31.44     0.266 C 
HETATM   10  O26   D T 510     -20.387 -18.449 -42.902  1.00 37.82    -0.269 OA
ENDROOT
BRANCH   3  11
HETATM   11  N5    D T 510     -23.335 -13.197 -39.452  1.00 21.79    -0.187 NA
HETATM   12  C6    D T 510     -23.496 -11.993 -40.077  1.00 24.46     0.281 C 
HETATM   13  O8    D T 510     -23.942 -11.886 -41.204  1.00 47.57    -0.265 OA
BRANCH  12  14
HETATM   14  C7    D T 510     -23.129 -10.770 -39.323  1.00 27.20     0.058 A 
HETATM   15  C9    D T 510     -22.755  -9.614 -40.009  1.00 26.30     0.006 A 
HETATM   16  C10   D T 510     -22.392  -8.459 -39.339  1.00 29.02     0.017 A 
HETATM   17  C24   D T 510     -22.382  -8.400 -37.928  1.00 25.79     0.056 A 
HETATM   18  C11   D T 510     -22.755  -9.576 -37.249  1.00 33.12     0.017 A 
HETATM   19  C12   D T 510     -23.111 -10.718 -37.931  1.00 29.35     0.006 A 
BRANCH  17  20
HETATM   20  N17   D T 510     -22.023  -7.272 -37.229  1.00 32.10    -0.344 N 
HETATM   21  C18   D T 510     -22.297  -5.960 -37.806  1.00 33.06     0.137 C 
HETATM   22  C19   D T 510     -22.394  -4.890 -36.727  1.00 45.16     0.274 C 
HETATM   23  N20   D T 510     -21.276  -4.862 -35.809  1.00 53.73     0.143 N 
HETATM   24  C21   D T 510     -21.129  -6.174 -35.211  1.00 50.63     0.274 C 
HETATM   25  C23   D T 510     -21.343  -3.781 -34.846  1.00 47.36     0.286 C 
HETATM   26  C22   D T 510     -20.991  -7.327 -36.202  1.00 35.17     0.137 C 
ENDBRANCH  17  20
ENDBRANCH  12  14
ENDBRANCH   3  11
BRANCH   9  27
HETATM   27  C20   D T 510     -19.087 -16.488 -42.469  1.00 31.66     0.216 C 
BRANCH  27  28
HETATM   28  C27   D T 510     -18.054 -17.207 -41.622  1.00 37.14     0.014 A 
HETATM   29  C28   D T 510     -16.971 -17.856 -42.204  1.00 32.75    -0.001 A 
HETATM   30  C31   D T 510     -16.028 -18.504 -41.414  1.00 32.33    -0.000 A 
HETATM   31  C35   D T 510     -16.161 -18.500 -40.033  1.00 38.48    -0.000 A 
HETATM   32  C33   D T 510     -17.240 -17.850 -39.444  1.00 37.62    -0.000 A 
HETATM   33  C29   D T 510     -18.180 -17.206 -40.233  1.00 37.41    -0.001 A 
ENDBRANCH  27  28
BRANCH  27  34
HETATM   34  O34   D T 510     -18.709 -16.381 -43.809  1.00 47.15    -0.340 OA
HETATM   35  C36   D T 510     -19.118 -15.176 -44.417  1.00 30.29     0.175 C 
ENDBRANCH  27  34
ENDBRANCH   9  27
TORSDOF 6
ENDMDL
MODEL 5
REMARK VINA RESULT:      -6.1      6.153      7.565
REMARK  6 active torsions:
REMARK  status: ('A' for Active; 'I' for Inactive)
REMARK       I    between atoms: N1_1  and  C25_25 
REMARK    1  A    between atoms: C3_3  and  N5_5 
REMARK       I    between atoms: N5_5  and  C6_6 
REMARK    2  A    between atoms: C6_6  and  C7_7 
REMARK    3  A    between atoms: N17_17  and  C24_24 
REMARK    4  A    between atoms: C25_25  and  C20_32 
REMARK    5  A    between atoms: C27_27  and  C20_32 
REMARK    6  A    between atoms: C20_32  and  O34_35 
ROOT
HETATM    1  N1    D T 510     -25.248 -20.979 -38.072  1.00 27.33    -0.308 N 
HETATM    2  N2    D T 510     -25.086 -24.352 -36.845  1.00 25.81    -0.149 NA
HETATM    3  C3    D T 510     -25.613 -23.204 -35.133  1.00 28.92     0.186 A 
HETATM    4  N4    D T 510     -25.348 -24.438 -35.531  1.00 26.85    -0.129 NA
HETATM    5  C13   D T 510     -25.184 -23.097 -37.283  1.00 21.37     0.104 A 
HETATM    6  C14   D T 510     -25.523 -22.312 -36.226  1.00 21.42     0.055 A 
HETATM    7  C15   D T 510     -25.645 -20.892 -36.652  1.00 23.53     0.136 A 
HETATM    8  C16   D T 510     -25.038 -22.350 -38.557  1.00 21.29     0.152 A 
HETATM    9  C25   D T 510     -25.104 -19.861 -38.809  1.00 31.44     0.266 C 
HETATM   10  O26   D T 510     -24.775 -19.907 -39.983  1.00 37.82    -0.269 OA
ENDROOT
BRANCH   3  11
HETATM   11  N5    D T 510     -25.943 -22.877 -33.820  1.00 21.79    -0.187 NA
HETATM   12  C6    D T 510     -25.348 -23.307 -32.668  1.00 24.46     0.281 C 
HETATM   13  O8    D T 510     -24.401 -24.071 -32.656  1.00 47.57    -0.265 OA
BRANCH  12  14
HETATM   14  C7    D T 510     -25.877 -22.789 -31.383  1.00 27.20     0.058 A 
HETATM   15  C9    D T 510     -25.913 -21.414 -31.146  1.00 26.30     0.006 A 
HETATM   16  C10   D T 510     -26.386 -20.896 -29.954  1.00 29.02     0.017 A 
HETATM   17  C24   D T 510     -26.852 -21.737 -28.920  1.00 25.79     0.056 A 
HETATM   18  C11   D T 510     -26.803 -23.122 -29.170  1.00 33.12     0.017 A 
HETATM   19  C12   D T 510     -26.327 -23.623 -30.362  1.00 29.35     0.006 A 
BRANCH  17  20
HETATM   20  N17   D T 510     -27.324 -21.258 -27.721  1.00 32.10    -0.344 N 
HETATM   21  C18   D T 510     -27.029 -19.881 -27.339  1.00 33.06     0.137 C 
HETATM   22  C19   D T 510     -28.056 -19.349 -26.350  1.00 45.16     0.274 C 
HETATM   23  N20   D T 510     -28.280 -20.201 -25.201  1.00 53.73     0.143 N 
HETATM   24  C21   D T 510     -28.659 -21.520 -25.665  1.00 50.63     0.274 C 
HETATM   25  C23   D T 510     -29.193 -19.635 -24.229  1.00 47.36     0.286 C 
HETATM   26  C22   D T 510     -27.681 -22.170 -26.642  1.00 35.17     0.137 C 
ENDBRANCH  17  20
ENDBRANCH  12  14
ENDBRANCH   3  11
BRANCH   9  27
HETATM   27  C20   D T 510     -25.353 -18.512 -38.128  1.00 31.66     0.216 C 
BRANCH  27  28
HETATM   28  C27   D T 510     -24.009 -17.831 -37.946  1.00 37.14     0.014 A 
HETATM   29  C28   D T 510     -23.111 -18.258 -36.974  1.00 32.75    -0.001 A 
HETATM   30  C31   D T 510     -21.880 -17.630 -36.826  1.00 32.33    -0.000 A 
HETATM   31  C35   D T 510     -21.538 -16.572 -37.656  1.00 38.48    -0.000 A 
HETATM   32  C33   D T 510     -22.429 -16.142 -38.632  1.00 37.62    -0.000 A 
HETATM   33  C29   D T 510     -23.656 -16.769 -38.778  1.00 37.41    -0.001 A 
ENDBRANCH  27  28
BRANCH  27  34
HETATM   34  O34   D T 510     -26.213 -17.795 -38.964  1.00 47.15    -0.340 OA
HETATM   35  C36   D T 510     -27.576 -17.947 -38.635  1.00 30.29     0.175 C 
ENDBRANCH  27  34
ENDBRANCH   9  27
TORSDOF 6
ENDMDL
MODEL 6
REMARK VINA RESULT:      -6.1      6.757     12.437
REMARK  6 active torsions:
REMARK  status: ('A' for Active; 'I' for Inactive)
REMARK       I    between atoms: N1_1  and  C25_25 
REMARK    1  A    between atoms: C3_3  and  N5_5 
REMARK       I    between atoms: N5_5  and  C6_6 
REMARK    2  A    between atoms: C6_6  and  C7_7 
REMARK    3  A    between atoms: N17_17  and  C24_24 
REMARK    4  A    between atoms: C25_25  and  C20_32 
REMARK    5  A    between atoms: C27_27  and  C20_32 
REMARK    6  A    between atoms: C20_32  and  O34_35 
ROOT
HETATM    1  N1    D T 510     -24.580 -20.116 -28.287  1.00 27.33    -0.308 N 
HETATM    2  N2    D T 510     -26.925 -22.761 -28.934  1.00 25.81    -0.149 NA
HETATM    3  C3    D T 510     -26.241 -22.193 -30.866  1.00 28.92     0.186 A 
HETATM    4  N4    D T 510     -27.067 -23.018 -30.244  1.00 26.85    -0.129 NA
HETATM    5  C13   D T 510     -26.027 -21.800 -28.718  1.00 21.37     0.104 A 
HETATM    6  C14   D T 510     -25.551 -21.396 -29.925  1.00 21.42     0.055 A 
HETATM    7  C15   D T 510     -24.542 -20.317 -29.750  1.00 23.53     0.136 A 
HETATM    8  C16   D T 510     -25.423 -21.082 -27.568  1.00 21.29     0.152 A 
HETATM    9  C25   D T 510     -23.883 -19.114 -27.718  1.00 31.44     0.266 C 
HETATM   10  O26   D T 510     -23.902 -18.928 -26.512  1.00 37.82    -0.269 OA
ENDROOT
BRANCH   3  11
HETATM   11  N5    D T 510     -26.091 -22.158 -32.251  1.00 21.79    -0.187 NA
HETATM   12  C6    D T 510     -25.395 -23.022 -33.047  1.00 24.46     0.281 C 
HETATM   13  O8    D T 510     -24.788 -23.983 -32.610  1.00 47.57    -0.265 OA
BRANCH  12  14
HETATM   14  C7    D T 510     -25.410 -22.778 -34.510  1.00 27.20     0.058 A 
HETATM   15  C9    D T 510     -25.421 -21.472 -34.999  1.00 26.30     0.006 A 
HETATM   16  C10   D T 510     -25.449 -21.206 -36.357  1.00 29.02     0.017 A 
HETATM   17  C24   D T 510     -25.472 -22.249 -37.309  1.00 25.79     0.056 A 
HETATM   18  C11   D T 510     -25.468 -23.562 -36.800  1.00 33.12     0.017 A 
HETATM   19  C12   D T 510     -25.441 -23.809 -35.446  1.00 29.35     0.006 A 
BRANCH  17  20
HETATM   20  N17   D T 510     -25.505 -22.023 -38.665  1.00 32.10    -0.344 N 
HETATM   21  C18   D T 510     -25.573 -20.650 -39.156  1.00 33.06     0.137 C 
HETATM   22  C19   D T 510     -25.025 -20.542 -40.573  1.00 45.16     0.274 C 
HETATM   23  N20   D T 510     -25.593 -21.488 -41.509  1.00 53.73     0.143 N 
HETATM   24  C21   D T 510     -25.402 -22.829 -40.992  1.00 50.63     0.274 C 
HETATM   25  C23   D T 510     -25.126 -21.310 -42.869  1.00 47.36     0.286 C 
HETATM   26  C22   D T 510     -25.944 -23.065 -39.584  1.00 35.17     0.137 C 
ENDBRANCH  17  20
ENDBRANCH  12  14
ENDBRANCH   3  11
BRANCH   9  27
HETATM   27  C20   D T 510     -23.068 -18.194 -28.630  1.00 31.66     0.216 C 
BRANCH  27  28
HETATM   28  C27   D T 510     -22.019 -17.506 -27.775  1.00 37.14     0.014 A 
HETATM   29  C28   D T 510     -22.040 -16.130 -27.579  1.00 32.75    -0.001 A 
HETATM   30  C31   D T 510     -21.078 -15.515 -26.786  1.00 32.33    -0.000 A 
HETATM   31  C35   D T 510     -20.092 -16.277 -26.179  1.00 38.48    -0.000 A 
HETATM   32  C33   D T 510     -20.067 -17.655 -26.368  1.00 37.62    -0.000 A 
HETATM   33  C29   D T 510     -21.026 -18.265 -27.160  1.00 37.41    -0.001 A 
ENDBRANCH  27  28
BRANCH  27  34
HETATM   34  O34   D T 510     -22.510 -19.006 -29.621  1.00 47.15    -0.340 OA
HETATM   35  C36   D T 510     -22.029 -18.288 -30.735  1.00 30.29     0.175 C 
ENDBRANCH  27  34
ENDBRANCH   9  27
TORSDOF 6
ENDMDL
MODEL 7
REMARK VINA RESULT:      -5.5      5.874      7.671
REMARK  6 active torsions:
REMARK  status: ('A' for Active; 'I' for Inactive)
REMARK       I    between atoms: N1_1  and  C25_25 
REMARK    1  A    between atoms: C3_3  and  N5_5 
REMARK       I    between atoms: N5_5  and  C6_6 
REMARK    2  A    between atoms: C6_6  and  C7_7 
REMARK    3  A    between atoms: N17_17  and  C24_24 
REMARK    4  A    between atoms: C25_25  and  C20_32 
REMARK    5  A    between atoms: C27_27  and  C20_32 
REMARK    6  A    between atoms: C20_32  and  O34_35 
ROOT
HETATM    1  N1    D T 510     -23.394 -17.617 -42.687  1.00 27.33    -0.308 N 
HETATM    2  N2    D T 510     -26.031 -19.942 -43.432  1.00 25.81    -0.149 NA
HETATM    3  C3    D T 510     -25.581 -20.309 -41.386  1.00 28.92     0.186 A 
HETATM    4  N4    D T 510     -26.357 -20.710 -42.381  1.00 26.85    -0.129 NA
HETATM    5  C13   D T 510     -25.075 -19.067 -43.122  1.00 21.37     0.104 A 
HETATM    6  C14   D T 510     -24.745 -19.255 -41.817  1.00 21.42     0.055 A 
HETATM    7  C15   D T 510     -23.675 -18.304 -41.410  1.00 23.53     0.136 A 
HETATM    8  C16   D T 510     -24.305 -17.982 -43.781  1.00 21.29     0.152 A 
HETATM    9  C25   D T 510     -22.374 -16.742 -42.780  1.00 31.44     0.266 C 
HETATM   10  O26   D T 510     -22.121 -16.165 -43.825  1.00 37.82    -0.269 OA
ENDROOT
BRANCH   3  11
HETATM   11  N5    D T 510     -25.625 -20.865 -40.109  1.00 21.79    -0.187 NA
HETATM   12  C6    D T 510     -25.445 -22.171 -39.751  1.00 24.46     0.281 C 
HETATM   13  O8    D T 510     -25.209 -23.053 -40.556  1.00 47.57    -0.265 OA
BRANCH  12  14
HETATM   14  C7    D T 510     -25.518 -22.507 -38.308  1.00 27.20     0.058 A 
HETATM   15  C9    D T 510     -25.620 -21.489 -37.359  1.00 26.30     0.006 A 
HETATM   16  C10   D T 510     -25.677 -21.764 -36.005  1.00 29.02     0.017 A 
HETATM   17  C24   D T 510     -25.630 -23.090 -35.521  1.00 25.79     0.056 A 
HETATM   18  C11   D T 510     -25.520 -24.107 -36.490  1.00 33.12     0.017 A 
HETATM   19  C12   D T 510     -25.462 -23.816 -37.835  1.00 29.35     0.006 A 
BRANCH  17  20
HETATM   20  N17   D T 510     -25.678 -23.401 -34.183  1.00 32.10    -0.344 N 
HETATM   21  C18   D T 510     -26.380 -24.608 -33.758  1.00 33.06     0.137 C 
HETATM   22  C19   D T 510     -25.863 -25.106 -32.415  1.00 45.16     0.274 C 
HETATM   23  N20   D T 510     -25.825 -24.098 -31.376  1.00 53.73     0.143 N 
HETATM   24  C21   D T 510     -25.034 -22.977 -31.842  1.00 50.63     0.274 C 
HETATM   25  C23   D T 510     -25.415 -24.612 -30.085  1.00 47.36     0.286 C 
HETATM   26  C22   D T 510     -25.483 -22.372 -33.170  1.00 35.17     0.137 C 
ENDBRANCH  17  20
ENDBRANCH  12  14
ENDBRANCH   3  11
BRANCH   9  27
HETATM   27  C20   D T 510     -21.519 -16.496 -41.534  1.00 31.66     0.216 C 
BRANCH  27  28
HETATM   28  C27   D T 510     -20.086 -16.857 -41.877  1.00 37.14     0.014 A 
HETATM   29  C28   D T 510     -19.789 -17.978 -42.645  1.00 32.75    -0.001 A 
HETATM   30  C31   D T 510     -18.472 -18.290 -42.960  1.00 32.33    -0.000 A 
HETATM   31  C35   D T 510     -17.442 -17.476 -42.511  1.00 38.48    -0.000 A 
HETATM   32  C33   D T 510     -17.731 -16.352 -41.745  1.00 37.62    -0.000 A 
HETATM   33  C29   D T 510     -19.045 -16.043 -41.432  1.00 37.41    -0.001 A 
ENDBRANCH  27  28
BRANCH  27  34
HETATM   34  O34   D T 510     -21.673 -15.148 -41.203  1.00 47.15    -0.340 OA
HETATM   35  C36   D T 510     -22.723 -14.906 -40.294  1.00 30.29     0.175 C 
ENDBRANCH  27  34
ENDBRANCH   9  27
TORSDOF 6
ENDMDL
MODEL 8
REMARK VINA RESULT:      -5.5      7.256     12.126
REMARK  6 active torsions:
REMARK  status: ('A' for Active; 'I' for Inactive)
REMARK       I    between atoms: N1_1  and  C25_25 
REMARK    1  A    between atoms: C3_3  and  N5_5 
REMARK       I    between atoms: N5_5  and  C6_6 
REMARK    2  A    between atoms: C6_6  and  C7_7 
REMARK    3  A    between atoms: N17_17  and  C24_24 
REMARK    4  A    between atoms: C25_25  and  C20_32 
REMARK    5  A    between atoms: C27_27  and  C20_32 
REMARK    6  A    between atoms: C20_32  and  O34_35 
ROOT
HETATM    1  N1    D T 510     -24.650 -20.744 -29.677  1.00 27.33    -0.308 N 
HETATM    2  N2    D T 510     -24.475 -24.324 -29.921  1.00 25.81    -0.149 NA
HETATM    3  C3    D T 510     -24.812 -23.687 -31.921  1.00 28.92     0.186 A 
HETATM    4  N4    D T 510     -24.654 -24.768 -31.175  1.00 26.85    -0.129 NA
HETATM    5  C13   D T 510     -24.512 -22.994 -29.861  1.00 21.37     0.104 A 
HETATM    6  C14   D T 510     -24.724 -22.526 -31.120  1.00 21.42     0.055 A 
HETATM    7  C15   D T 510     -24.778 -21.040 -31.119  1.00 23.53     0.136 A 
HETATM    8  C16   D T 510     -24.383 -21.923 -28.842  1.00 21.29     0.152 A 
HETATM    9  C25   D T 510     -24.779 -19.481 -29.227  1.00 31.44     0.266 C 
HETATM   10  O26   D T 510     -24.679 -19.213 -28.040  1.00 37.82    -0.269 OA
ENDROOT
BRANCH   3  11
HETATM   11  N5    D T 510     -25.018 -23.730 -33.299  1.00 21.79    -0.187 NA
HETATM   12  C6    D T 510     -26.177 -23.997 -33.970  1.00 24.46     0.281 C 
HETATM   13  O8    D T 510     -27.229 -24.239 -33.408  1.00 47.57    -0.265 OA
BRANCH  12  14
HETATM   14  C7    D T 510     -26.140 -23.959 -35.452  1.00 27.20     0.058 A 
HETATM   15  C9    D T 510     -26.458 -22.781 -36.129  1.00 26.30     0.006 A 
HETATM   16  C10   D T 510     -26.448 -22.713 -37.510  1.00 29.02     0.017 A 
HETATM   17  C24   D T 510     -26.119 -23.836 -38.300  1.00 25.79     0.056 A 
HETATM   18  C11   D T 510     -25.808 -25.021 -37.604  1.00 33.12     0.017 A 
HETATM   19  C12   D T 510     -25.824 -25.073 -36.228  1.00 29.35     0.006 A 
BRANCH  17  20
HETATM   20  N17   D T 510     -26.104 -23.807 -39.674  1.00 32.10    -0.344 N 
HETATM   21  C18   D T 510     -25.471 -22.682 -40.355  1.00 33.06     0.137 C 
HETATM   22  C19   D T 510     -25.026 -23.065 -41.760  1.00 45.16     0.274 C 
HETATM   23  N20   D T 510     -26.055 -23.685 -42.566  1.00 53.73     0.143 N 
HETATM   24  C21   D T 510     -26.565 -24.845 -41.862  1.00 50.63     0.274 C 
HETATM   25  C23   D T 510     -25.639 -23.960 -43.927  1.00 47.36     0.286 C 
HETATM   26  C22   D T 510     -27.072 -24.574 -40.447  1.00 35.17     0.137 C 
ENDBRANCH  17  20
ENDBRANCH  12  14
ENDBRANCH   3  11
BRANCH   9  27
HETATM   27  C20   D T 510     -25.071 -18.377 -30.247  1.00 31.66     0.216 C 
BRANCH  27  28
HETATM   28  C27   D T 510     -23.740 -17.835 -30.735  1.00 37.14     0.014 A 
HETATM   29  C28   D T 510     -22.995 -16.952 -29.962  1.00 32.75    -0.001 A 
HETATM   30  C31   D T 510     -21.774 -16.471 -30.419  1.00 32.33    -0.000 A 
HETATM   31  C35   D T 510     -21.288 -16.877 -31.653  1.00 38.48    -0.000 A 
HETATM   32  C33   D T 510     -22.026 -17.762 -32.430  1.00 37.62    -0.000 A 
HETATM   33  C29   D T 510     -23.244 -18.240 -31.973  1.00 37.41    -0.001 A 
ENDBRANCH  27  28
BRANCH  27  34
HETATM   34  O34   D T 510     -25.822 -18.965 -31.267  1.00 47.15    -0.340 OA
HETATM   35  C36   D T 510     -27.175 -18.566 -31.275  1.00 30.29     0.175 C 
ENDBRANCH  27  34
ENDBRANCH   9  27
TORSDOF 6
ENDMDL
MODEL 9
REMARK VINA RESULT:      -5.4      6.673      8.152
REMARK  6 active torsions:
REMARK  status: ('A' for Active; 'I' for Inactive)
REMARK       I    between atoms: N1_1  and  C25_25 
REMARK    1  A    between atoms: C3_3  and  N5_5 
REMARK       I    between atoms: N5_5  and  C6_6 
REMARK    2  A    between atoms: C6_6  and  C7_7 
REMARK    3  A    between atoms: N17_17  and  C24_24 
REMARK    4  A    between atoms: C25_25  and  C20_32 
REMARK    5  A    between atoms: C27_27  and  C20_32 
REMARK    6  A    between atoms: C20_32  and  O34_35 
ROOT
HETATM    1  N1    D T 510     -21.500 -16.998 -42.876  1.00 27.33    -0.308 N 
HETATM    2  N2    D T 510     -24.952 -17.684 -43.602  1.00 25.81    -0.149 NA
HETATM    3  C3    D T 510     -24.601 -18.689 -41.760  1.00 28.92     0.186 A 
HETATM    4  N4    D T 510     -25.532 -18.459 -42.673  1.00 26.85    -0.129 NA
HETATM    5  C13   D T 510     -23.683 -17.417 -43.294  1.00 21.37     0.104 A 
HETATM    6  C14   D T 510     -23.401 -18.036 -42.117  1.00 21.42     0.055 A 
HETATM    7  C15   D T 510     -21.990 -17.777 -41.720  1.00 23.53     0.136 A 
HETATM    8  C16   D T 510     -22.540 -16.655 -43.856  1.00 21.29     0.152 A 
HETATM    9  C25   D T 510     -20.199 -16.663 -42.969  1.00 31.44     0.266 C 
HETATM   10  O26   D T 510     -19.771 -16.022 -43.915  1.00 37.82    -0.269 OA
ENDROOT
BRANCH   3  11
HETATM   11  N5    D T 510     -24.821 -19.458 -40.619  1.00 21.79    -0.187 NA
HETATM   12  C6    D T 510     -25.068 -20.799 -40.539  1.00 24.46     0.281 C 
HETATM   13  O8    D T 510     -25.127 -21.521 -41.517  1.00 47.57    -0.265 OA
BRANCH  12  14
HETATM   14  C7    D T 510     -25.245 -21.389 -39.190  1.00 27.20     0.058 A 
HETATM   15  C9    D T 510     -25.466 -22.760 -39.053  1.00 26.30     0.006 A 
HETATM   16  C10   D T 510     -25.650 -23.343 -37.812  1.00 29.02     0.017 A 
HETATM   17  C24   D T 510     -25.626 -22.575 -36.627  1.00 25.79     0.056 A 
HETATM   18  C11   D T 510     -25.409 -21.192 -36.782  1.00 33.12     0.017 A 
HETATM   19  C12   D T 510     -25.230 -20.626 -38.025  1.00 29.35     0.006 A 
BRANCH  17  20
HETATM   20  N17   D T 510     -25.810 -23.119 -35.378  1.00 32.10    -0.344 N 
HETATM   21  C18   D T 510     -26.535 -24.380 -35.251  1.00 33.06     0.137 C 
HETATM   22  C19   D T 510     -26.153 -25.110 -33.971  1.00 45.16     0.274 C 
HETATM   23  N20   D T 510     -26.240 -24.304 -32.772  1.00 53.73     0.143 N 
HETATM   24  C21   D T 510     -25.421 -23.121 -32.944  1.00 50.63     0.274 C 
HETATM   25  C23   D T 510     -25.960 -25.042 -31.556  1.00 47.36     0.286 C 
HETATM   26  C22   D T 510     -25.737 -22.288 -34.184  1.00 35.17     0.137 C 
ENDBRANCH  17  20
ENDBRANCH  12  14
ENDBRANCH   3  11
BRANCH   9  27
HETATM   27  C20   D T 510     -19.254 -17.122 -41.854  1.00 31.66     0.216 C 
BRANCH  27  28
HETATM   28  C27   D T 510     -17.836 -16.804 -42.291  1.00 37.14     0.014 A 
HETATM   29  C28   D T 510     -17.049 -17.756 -42.930  1.00 32.75    -0.001 A 
HETATM   30  C31   D T 510     -15.755 -17.447 -43.331  1.00 32.33    -0.000 A 
HETATM   31  C35   D T 510     -15.242 -16.179 -43.100  1.00 38.48    -0.000 A 
HETATM   32  C33   D T 510     -16.024 -15.222 -42.464  1.00 37.62    -0.000 A 
HETATM   33  C29   D T 510     -17.314 -15.532 -42.064  1.00 37.41    -0.001 A 
ENDBRANCH  27  28
BRANCH  27  34
HETATM   34  O34   D T 510     -19.633 -16.431 -40.701  1.00 47.15    -0.340 OA
HETATM   35  C36   D T 510     -19.388 -17.144 -39.509  1.00 30.29     0.175 C 
ENDBRANCH  27  34
ENDBRANCH   9  27
TORSDOF 6
ENDMDL
