MODEL 1
REMARK VINA RESULT:      -6.8      0.000      0.000
REMARK  6 active torsions:
REMARK  status: ('A' for Active; 'I' for Inactive)
REMARK       I    between atoms: N1_1  and  C25_25 
REMARK    1  A    between atoms: C3_3  and  N5_5 
REMARK       I    between atoms: N5_5  and  C6_6 
REMARK    2  A    between atoms: C6_6  and  C7_7 
REMARK    3  A    between atoms: N17_17  and  C24_24 
REMARK    4  A    between atoms: C25_25  and  C20_32 
REMARK    5  A    between atoms: C27_27  and  C20_32 
REMARK    6  A    between atoms: C20_32  and  O34_35 
ROOT
HETATM    1  N1    D T 510     -17.774  -9.536 -31.070  1.00 27.33    -0.308 N 
HETATM    2  N2    D T 510     -17.265 -11.783 -33.827  1.00 25.81    -0.149 NA
HETATM    3  C3    D T 510     -18.492 -12.884 -32.483  1.00 28.92     0.186 A 
HETATM    4  N4    D T 510     -17.870 -12.968 -33.648  1.00 26.85    -0.129 NA
HETATM    5  C13   D T 510     -17.495 -10.956 -32.807  1.00 21.37     0.104 A 
HETATM    6  C14   D T 510     -18.281 -11.609 -31.911  1.00 21.42     0.055 A 
HETATM    7  C15   D T 510     -18.572 -10.735 -30.743  1.00 23.53     0.136 A 
HETATM    8  C16   D T 510     -17.149  -9.572 -32.400  1.00 21.29     0.152 A 
HETATM    9  C25   D T 510     -17.663  -8.528 -30.183  1.00 31.44     0.266 C 
HETATM   10  O26   D T 510     -17.008  -7.529 -30.430  1.00 37.82    -0.269 OA
ENDROOT
BRANCH   3  11
HETATM   11  N5    D T 510     -19.248 -13.921 -31.942  1.00 21.79    -0.187 NA
HETATM   12  C6    D T 510     -20.547 -13.888 -31.521  1.00 24.46     0.281 C 
HETATM   13  O8    D T 510     -21.236 -12.886 -31.574  1.00 47.57    -0.265 OA
BRANCH  12  14
HETATM   14  C7    D T 510     -21.136 -15.145 -31.000  1.00 27.20     0.058 A 
HETATM   15  C9    D T 510     -20.786 -16.369 -31.571  1.00 26.30     0.006 A 
HETATM   16  C10   D T 510     -21.326 -17.560 -31.121  1.00 29.02     0.017 A 
HETATM   17  C24   D T 510     -22.261 -17.591 -30.063  1.00 25.79     0.056 A 
HETATM   18  C11   D T 510     -22.610 -16.348 -29.501  1.00 33.12     0.017 A 
HETATM   19  C12   D T 510     -22.065 -15.170 -29.962  1.00 29.35     0.006 A 
BRANCH  17  20
HETATM   20  N17   D T 510     -22.822 -18.755 -29.593  1.00 32.10    -0.344 N 
HETATM   21  C18   D T 510     -22.743 -19.962 -30.409  1.00 33.06     0.137 C 
HETATM   22  C19   D T 510     -22.859 -21.216 -29.553  1.00 45.16     0.274 C 
HETATM   23  N20   D T 510     -23.999 -21.230 -28.661  1.00 53.73     0.143 N 
HETATM   24  C21   D T 510     -23.952 -20.048 -27.825  1.00 50.63     0.274 C 
HETATM   25  C23   D T 510     -24.142 -22.468 -27.922  1.00 47.36     0.286 C 
HETATM   26  C22   D T 510     -23.867 -18.722 -28.579  1.00 35.17     0.137 C 
ENDBRANCH  17  20
ENDBRANCH  12  14
ENDBRANCH   3  11
BRANCH   9  27
HETATM   27  C20   D T 510     -18.377  -8.672 -28.836  1.00 31.66     0.216 C 
BRANCH  27  28
HETATM   28  C27   D T 510     -17.353  -8.429 -27.742  1.00 37.14     0.014 A 
HETATM   29  C28   D T 510     -17.665  -7.675 -26.617  1.00 32.75    -0.001 A 
HETATM   30  C31   D T 510     -16.719  -7.469 -25.620  1.00 32.33    -0.000 A 
HETATM   31  C35   D T 510     -15.454  -8.023 -25.741  1.00 38.48    -0.000 A 
HETATM   32  C33   D T 510     -15.135  -8.782 -26.862  1.00 37.62    -0.000 A 
HETATM   33  C29   D T 510     -16.079  -8.985 -27.856  1.00 37.41    -0.001 A 
ENDBRANCH  27  28
BRANCH  27  34
HETATM   34  O34   D T 510     -19.409  -7.731 -28.828  1.00 47.15    -0.340 OA
HETATM   35  C36   D T 510     -20.692  -8.300 -28.972  1.00 30.29     0.175 C 
ENDBRANCH  27  34
ENDBRANCH   9  27
TORSDOF 6
ENDMDL
MODEL 2
REMARK VINA RESULT:      -6.7      3.735      5.842
REMARK  6 active torsions:
REMARK  status: ('A' for Active; 'I' for Inactive)
REMARK       I    between atoms: N1_1  and  C25_25 
REMARK    1  A    between atoms: C3_3  and  N5_5 
REMARK       I    between atoms: N5_5  and  C6_6 
REMARK    2  A    between atoms: C6_6  and  C7_7 
REMARK    3  A    between atoms: N17_17  and  C24_24 
REMARK    4  A    between atoms: C25_25  and  C20_32 
REMARK    5  A    between atoms: C27_27  and  C20_32 
REMARK    6  A    between atoms: C20_32  and  O34_35 
ROOT
HETATM    1  N1    D T 510     -17.176 -11.179 -34.053  1.00 27.33    -0.308 N 
HETATM    2  N2    D T 510     -20.537 -10.097 -33.388  1.00 25.81    -0.149 NA
HETATM    3  C3    D T 510     -20.484 -12.096 -32.662  1.00 28.92     0.186 A 
HETATM    4  N4    D T 510     -21.285 -11.053 -32.814  1.00 26.85    -0.129 NA
HETATM    5  C13   D T 510     -19.287 -10.511 -33.594  1.00 21.37     0.104 A 
HETATM    6  C14   D T 510     -19.192 -11.790 -33.145  1.00 21.42     0.055 A 
HETATM    7  C15   D T 510     -17.814 -12.312 -33.352  1.00 23.53     0.136 A 
HETATM    8  C16   D T 510     -18.019  -9.979 -34.151  1.00 21.29     0.152 A 
HETATM    9  C25   D T 510     -15.925 -11.296 -34.540  1.00 31.44     0.266 C 
HETATM   10  O26   D T 510     -15.378 -10.375 -35.124  1.00 37.82    -0.269 OA
ENDROOT
BRANCH   3  11
HETATM   11  N5    D T 510     -20.893 -13.298 -32.088  1.00 21.79    -0.187 NA
HETATM   12  C6    D T 510     -20.792 -13.687 -30.783  1.00 24.46     0.281 C 
HETATM   13  O8    D T 510     -20.305 -12.984 -29.917  1.00 47.57    -0.265 OA
BRANCH  12  14
HETATM   14  C7    D T 510     -21.329 -15.021 -30.417  1.00 27.20     0.058 A 
HETATM   15  C9    D T 510     -20.762 -16.174 -30.961  1.00 26.30     0.006 A 
HETATM   16  C10   D T 510     -21.246 -17.433 -30.654  1.00 29.02     0.017 A 
HETATM   17  C24   D T 510     -22.338 -17.608 -29.776  1.00 25.79     0.056 A 
HETATM   18  C11   D T 510     -22.904 -16.434 -29.241  1.00 33.12     0.017 A 
HETATM   19  C12   D T 510     -22.413 -15.188 -29.558  1.00 29.35     0.006 A 
BRANCH  17  20
HETATM   20  N17   D T 510     -22.848 -18.842 -29.452  1.00 32.10    -0.344 N 
HETATM   21  C18   D T 510     -22.652 -19.957 -30.373  1.00 33.06     0.137 C 
HETATM   22  C19   D T 510     -22.732 -21.294 -29.649  1.00 45.16     0.274 C 
HETATM   23  N20   D T 510     -23.913 -21.462 -28.829  1.00 53.73     0.143 N 
HETATM   24  C21   D T 510     -23.983 -20.367 -27.882  1.00 50.63     0.274 C 
HETATM   25  C23   D T 510     -24.015 -22.773 -28.220  1.00 47.36     0.286 C 
HETATM   26  C22   D T 510     -23.944 -18.971 -28.500  1.00 35.17     0.137 C 
ENDBRANCH  17  20
ENDBRANCH  12  14
ENDBRANCH   3  11
BRANCH   9  27
HETATM   27  C20   D T 510     -15.202 -12.633 -34.355  1.00 31.66     0.216 C 
BRANCH  27  28
HETATM   28  C27   D T 510     -15.040 -13.265 -35.725  1.00 37.14     0.014 A 
HETATM   29  C28   D T 510     -16.143 -13.552 -36.521  1.00 32.75    -0.001 A 
HETATM   30  C31   D T 510     -15.977 -14.122 -37.778  1.00 32.33    -0.000 A 
HETATM   31  C35   D T 510     -14.703 -14.404 -38.248  1.00 38.48    -0.000 A 
HETATM   32  C33   D T 510     -13.595 -14.117 -37.458  1.00 37.62    -0.000 A 
HETATM   33  C29   D T 510     -13.762 -13.549 -36.205  1.00 37.41    -0.001 A 
ENDBRANCH  27  28
BRANCH  27  34
HETATM   34  O34   D T 510     -13.979 -12.344 -33.744  1.00 47.15    -0.340 OA
HETATM   35  C36   D T 510     -14.106 -11.870 -32.422  1.00 30.29     0.175 C 
ENDBRANCH  27  34
ENDBRANCH   9  27
TORSDOF 6
ENDMDL
MODEL 3
REMARK VINA RESULT:      -6.4      5.417     10.812
REMARK  6 active torsions:
REMARK  status: ('A' for Active; 'I' for Inactive)
REMARK       I    between atoms: N1_1  and  C25_25 
REMARK    1  A    between atoms: C3_3  and  N5_5 
REMARK       I    between atoms: N5_5  and  C6_6 
REMARK    2  A    between atoms: C6_6  and  C7_7 
REMARK    3  A    between atoms: N17_17  and  C24_24 
REMARK    4  A    between atoms: C25_25  and  C20_32 
REMARK    5  A    between atoms: C27_27  and  C20_32 
REMARK    6  A    between atoms: C20_32  and  O34_35 
ROOT
HETATM    1  N1    D T 510     -24.263 -18.282 -32.956  1.00 27.33    -0.308 N 
HETATM    2  N2    D T 510     -24.705 -16.306 -35.924  1.00 25.81    -0.149 NA
HETATM    3  C3    D T 510     -22.656 -16.034 -35.423  1.00 28.92     0.186 A 
HETATM    4  N4    D T 510     -23.582 -15.674 -36.298  1.00 26.85    -0.129 NA
HETATM    5  C13   D T 510     -24.508 -17.057 -34.841  1.00 21.37     0.104 A 
HETATM    6  C14   D T 510     -23.206 -16.924 -34.473  1.00 21.42     0.055 A 
HETATM    7  C15   D T 510     -22.923 -17.740 -33.262  1.00 23.53     0.136 A 
HETATM    8  C16   D T 510     -25.285 -17.968 -33.965  1.00 21.29     0.152 A 
HETATM    9  C25   D T 510     -24.470 -18.994 -31.831  1.00 31.44     0.266 C 
HETATM   10  O26   D T 510     -25.568 -19.449 -31.556  1.00 37.82    -0.269 OA
ENDROOT
BRANCH   3  11
HETATM   11  N5    D T 510     -21.337 -15.588 -35.476  1.00 21.79    -0.187 NA
HETATM   12  C6    D T 510     -20.827 -14.405 -35.021  1.00 24.46     0.281 C 
HETATM   13  O8    D T 510     -21.509 -13.553 -34.482  1.00 47.57    -0.265 OA
BRANCH  12  14
HETATM   14  C7    D T 510     -19.370 -14.176 -35.177  1.00 27.20     0.058 A 
HETATM   15  C9    D T 510     -18.689 -13.372 -34.262  1.00 26.30     0.006 A 
HETATM   16  C10   D T 510     -17.333 -13.125 -34.384  1.00 29.02     0.017 A 
HETATM   17  C24   D T 510     -16.578 -13.674 -35.443  1.00 25.79     0.056 A 
HETATM   18  C11   D T 510     -17.280 -14.477 -36.362  1.00 33.12     0.017 A 
HETATM   19  C12   D T 510     -18.630 -14.712 -36.229  1.00 29.35     0.006 A 
BRANCH  17  20
HETATM   20  N17   D T 510     -15.231 -13.446 -35.599  1.00 32.10    -0.344 N 
HETATM   21  C18   D T 510     -14.511 -12.708 -34.566  1.00 33.06     0.137 C 
HETATM   22  C19   D T 510     -13.025 -13.043 -34.581  1.00 45.16     0.274 C 
HETATM   23  N20   D T 510     -12.397 -12.923 -35.880  1.00 53.73     0.143 N 
HETATM   24  C21   D T 510     -13.115 -13.756 -36.824  1.00 50.63     0.274 C 
HETATM   25  C23   D T 510     -10.968 -13.158 -35.856  1.00 47.36     0.286 C 
HETATM   26  C22   D T 510     -14.615 -13.486 -36.918  1.00 35.17     0.137 C 
ENDBRANCH  17  20
ENDBRANCH  12  14
ENDBRANCH   3  11
BRANCH   9  27
HETATM   27  C20   D T 510     -23.284 -19.209 -30.886  1.00 31.66     0.216 C 
BRANCH  27  28
HETATM   28  C27   D T 510     -23.310 -18.100 -29.851  1.00 37.14     0.014 A 
HETATM   29  C28   D T 510     -24.134 -18.176 -28.734  1.00 32.75    -0.001 A 
HETATM   30  C31   D T 510     -24.139 -17.156 -27.790  1.00 32.33    -0.000 A 
HETATM   31  C35   D T 510     -23.314 -16.053 -27.957  1.00 38.48    -0.000 A 
HETATM   32  C33   D T 510     -22.486 -15.972 -29.071  1.00 37.62    -0.000 A 
HETATM   33  C29   D T 510     -22.482 -16.990 -30.011  1.00 37.41    -0.001 A 
ENDBRANCH  27  28
BRANCH  27  34
HETATM   34  O34   D T 510     -23.447 -20.478 -30.324  1.00 47.15    -0.340 OA
HETATM   35  C36   D T 510     -22.230 -21.132 -30.045  1.00 30.29     0.175 C 
ENDBRANCH  27  34
ENDBRANCH   9  27
TORSDOF 6
ENDMDL
MODEL 4
REMARK VINA RESULT:      -6.3      2.640      5.228
REMARK  6 active torsions:
REMARK  status: ('A' for Active; 'I' for Inactive)
REMARK       I    between atoms: N1_1  and  C25_25 
REMARK    1  A    between atoms: C3_3  and  N5_5 
REMARK       I    between atoms: N5_5  and  C6_6 
REMARK    2  A    between atoms: C6_6  and  C7_7 
REMARK    3  A    between atoms: N17_17  and  C24_24 
REMARK    4  A    between atoms: C25_25  and  C20_32 
REMARK    5  A    between atoms: C27_27  and  C20_32 
REMARK    6  A    between atoms: C20_32  and  O34_35 
ROOT
HETATM    1  N1    D T 510     -16.429 -10.379 -31.812  1.00 27.33    -0.308 N 
HETATM    2  N2    D T 510     -19.269  -9.223 -29.939  1.00 25.81    -0.149 NA
HETATM    3  C3    D T 510     -19.592 -11.317 -30.128  1.00 28.92     0.186 A 
HETATM    4  N4    D T 510     -20.126 -10.211 -29.636  1.00 26.85    -0.129 NA
HETATM    5  C13   D T 510     -18.209  -9.681 -30.605  1.00 21.37     0.104 A 
HETATM    6  C14   D T 510     -18.360 -11.024 -30.754  1.00 21.42     0.055 A 
HETATM    7  C15   D T 510     -17.204 -11.596 -31.496  1.00 23.53     0.136 A 
HETATM    8  C16   D T 510     -16.956  -9.152 -31.198  1.00 21.29     0.152 A 
HETATM    9  C25   D T 510     -15.341 -10.450 -32.603  1.00 31.44     0.266 C 
HETATM   10  O26   D T 510     -14.686  -9.458 -32.879  1.00 37.82    -0.269 OA
ENDROOT
BRANCH   3  11
HETATM   11  N5    D T 510     -20.185 -12.572 -30.010  1.00 21.79    -0.187 NA
HETATM   12  C6    D T 510     -20.853 -13.283 -30.966  1.00 24.46     0.281 C 
HETATM   13  O8    D T 510     -21.015 -12.877 -32.102  1.00 47.57    -0.265 OA
BRANCH  12  14
HETATM   14  C7    D T 510     -21.376 -14.620 -30.593  1.00 27.20     0.058 A 
HETATM   15  C9    D T 510     -21.072 -15.732 -31.378  1.00 26.30     0.006 A 
HETATM   16  C10   D T 510     -21.554 -16.991 -31.069  1.00 29.02     0.017 A 
HETATM   17  C24   D T 510     -22.380 -17.207 -29.944  1.00 25.79     0.056 A 
HETATM   18  C11   D T 510     -22.684 -16.074 -29.164  1.00 33.12     0.017 A 
HETATM   19  C12   D T 510     -22.198 -14.826 -29.487  1.00 29.35     0.006 A 
BRANCH  17  20
HETATM   20  N17   D T 510     -22.881 -18.442 -29.609  1.00 32.10    -0.344 N 
HETATM   21  C18   D T 510     -22.608 -19.581 -30.480  1.00 33.06     0.137 C 
HETATM   22  C19   D T 510     -22.701 -20.896 -29.718  1.00 45.16     0.274 C 
HETATM   23  N20   D T 510     -23.923 -21.065 -28.961  1.00 53.73     0.143 N 
HETATM   24  C21   D T 510     -24.071 -19.942 -28.057  1.00 50.63     0.274 C 
HETATM   25  C23   D T 510     -24.032 -22.358 -28.317  1.00 47.36     0.286 C 
HETATM   26  C22   D T 510     -24.027 -18.566 -28.717  1.00 35.17     0.137 C 
ENDBRANCH  17  20
ENDBRANCH  12  14
ENDBRANCH   3  11
BRANCH   9  27
HETATM   27  C20   D T 510     -14.947 -11.818 -33.166  1.00 31.66     0.216 C 
BRANCH  27  28
HETATM   28  C27   D T 510     -15.513 -11.920 -34.571  1.00 37.14     0.014 A 
HETATM   29  C28   D T 510     -15.101 -11.053 -35.577  1.00 32.75    -0.001 A 
HETATM   30  C31   D T 510     -15.622 -11.165 -36.862  1.00 32.33    -0.000 A 
HETATM   31  C35   D T 510     -16.555 -12.151 -37.147  1.00 38.48    -0.000 A 
HETATM   32  C33   D T 510     -16.969 -13.023 -36.145  1.00 37.62    -0.000 A 
HETATM   33  C29   D T 510     -16.449 -12.910 -34.866  1.00 37.41    -0.001 A 
ENDBRANCH  27  28
BRANCH  27  34
HETATM   34  O34   D T 510     -13.551 -11.874 -33.140  1.00 47.15    -0.340 OA
HETATM   35  C36   D T 510     -13.029 -13.120 -33.544  1.00 30.29     0.175 C 
ENDBRANCH  27  34
ENDBRANCH   9  27
TORSDOF 6
ENDMDL
MODEL 5
REMARK VINA RESULT:      -6.3      3.208      6.023
REMARK  6 active torsions:
REMARK  status: ('A' for Active; 'I' for Inactive)
REMARK       I    between atoms: N1_1  and  C25_25 
REMARK    1  A    between atoms: C3_3  and  N5_5 
REMARK       I    between atoms: N5_5  and  C6_6 
REMARK    2  A    between atoms: C6_6  and  C7_7 
REMARK    3  A    between atoms: N17_17  and  C24_24 
REMARK    4  A    between atoms: C25_25  and  C20_32 
REMARK    5  A    between atoms: C27_27  and  C20_32 
REMARK    6  A    between atoms: C20_32  and  O34_35 
ROOT
HETATM    1  N1    D T 510     -16.740 -11.476 -33.583  1.00 27.33    -0.308 N 
HETATM    2  N2    D T 510     -18.828 -10.050 -31.031  1.00 25.81    -0.149 NA
HETATM    3  C3    D T 510     -19.374 -12.105 -31.057  1.00 28.92     0.186 A 
HETATM    4  N4    D T 510     -19.649 -10.951 -30.470  1.00 26.85    -0.129 NA
HETATM    5  C13   D T 510     -18.041 -10.609 -31.951  1.00 21.37     0.104 A 
HETATM    6  C14   D T 510     -18.347 -11.932 -32.011  1.00 21.42     0.055 A 
HETATM    7  C15   D T 510     -17.500 -12.614 -33.027  1.00 23.53     0.136 A 
HETATM    8  C16   D T 510     -16.963 -10.202 -32.886  1.00 21.29     0.152 A 
HETATM    9  C25   D T 510     -15.928 -11.653 -34.644  1.00 31.44     0.266 C 
HETATM   10  O26   D T 510     -15.291 -10.729 -35.122  1.00 37.82    -0.269 OA
ENDROOT
BRANCH   3  11
HETATM   11  N5    D T 510     -20.019 -13.298 -30.739  1.00 21.79    -0.187 NA
HETATM   12  C6    D T 510     -21.315 -13.650 -30.989  1.00 24.46     0.281 C 
HETATM   13  O8    D T 510     -22.104 -12.915 -31.556  1.00 47.57    -0.265 OA
BRANCH  12  14
HETATM   14  C7    D T 510     -21.758 -15.001 -30.568  1.00 27.20     0.058 A 
HETATM   15  C9    D T 510     -21.356 -16.124 -31.290  1.00 26.30     0.006 A 
HETATM   16  C10   D T 510     -21.761 -17.398 -30.935  1.00 29.02     0.017 A 
HETATM   17  C24   D T 510     -22.605 -17.619 -29.824  1.00 25.79     0.056 A 
HETATM   18  C11   D T 510     -23.008 -16.475 -29.109  1.00 33.12     0.017 A 
HETATM   19  C12   D T 510     -22.598 -15.213 -29.477  1.00 29.35     0.006 A 
BRANCH  17  20
HETATM   20  N17   D T 510     -23.031 -18.869 -29.445  1.00 32.10    -0.344 N 
HETATM   21  C18   D T 510     -22.922 -19.975 -30.390  1.00 33.06     0.137 C 
HETATM   22  C19   D T 510     -22.867 -21.316 -29.670  1.00 45.16     0.274 C 
HETATM   23  N20   D T 510     -23.927 -21.521 -28.706  1.00 53.73     0.143 N 
HETATM   24  C21   D T 510     -23.907 -20.431 -27.751  1.00 50.63     0.274 C 
HETATM   25  C23   D T 510     -23.910 -22.836 -28.097  1.00 47.36     0.286 C 
HETATM   26  C22   D T 510     -23.990 -19.033 -28.360  1.00 35.17     0.137 C 
ENDBRANCH  17  20
ENDBRANCH  12  14
ENDBRANCH   3  11
BRANCH   9  27
HETATM   27  C20   D T 510     -15.831 -13.055 -35.252  1.00 31.66     0.216 C 
BRANCH  27  28
HETATM   28  C27   D T 510     -17.005 -13.232 -36.196  1.00 37.14     0.014 A 
HETATM   29  C28   D T 510     -17.411 -12.205 -37.041  1.00 32.75    -0.001 A 
HETATM   30  C31   D T 510     -18.483 -12.386 -37.908  1.00 32.33    -0.000 A 
HETATM   31  C35   D T 510     -19.152 -13.600 -37.937  1.00 38.48    -0.000 A 
HETATM   32  C33   D T 510     -18.750 -14.633 -37.097  1.00 37.62    -0.000 A 
HETATM   33  C29   D T 510     -17.681 -14.451 -36.234  1.00 37.41    -0.001 A 
ENDBRANCH  27  28
BRANCH  27  34
HETATM   34  O34   D T 510     -14.597 -13.124 -35.903  1.00 47.15    -0.340 OA
HETATM   35  C36   D T 510     -13.590 -13.750 -35.141  1.00 30.29     0.175 C 
ENDBRANCH  27  34
ENDBRANCH   9  27
TORSDOF 6
ENDMDL
MODEL 6
REMARK VINA RESULT:      -6.2      3.037     10.689
REMARK  6 active torsions:
REMARK  status: ('A' for Active; 'I' for Inactive)
REMARK       I    between atoms: N1_1  and  C25_25 
REMARK    1  A    between atoms: C3_3  and  N5_5 
REMARK       I    between atoms: N5_5  and  C6_6 
REMARK    2  A    between atoms: C6_6  and  C7_7 
REMARK    3  A    between atoms: N17_17  and  C24_24 
REMARK    4  A    between atoms: C25_25  and  C20_32 
REMARK    5  A    between atoms: C27_27  and  C20_32 
REMARK    6  A    between atoms: C20_32  and  O34_35 
ROOT
HETATM    1  N1    D T 510     -24.125 -15.898 -32.505  1.00 27.33    -0.308 N 
HETATM    2  N2    D T 510     -24.931 -12.448 -33.105  1.00 25.81    -0.149 NA
HETATM    3  C3    D T 510     -23.051 -12.374 -32.113  1.00 28.92     0.186 A 
HETATM    4  N4    D T 510     -23.997 -11.608 -32.633  1.00 26.85    -0.129 NA
HETATM    5  C13   D T 510     -24.594 -13.721 -32.900  1.00 21.37     0.104 A 
HETATM    6  C14   D T 510     -23.392 -13.737 -32.266  1.00 21.42     0.055 A 
HETATM    7  C15   D T 510     -22.962 -15.137 -32.005  1.00 23.53     0.136 A 
HETATM    8  C16   D T 510     -25.145 -15.073 -33.168  1.00 21.29     0.152 A 
HETATM    9  C25   D T 510     -24.190 -17.232 -32.336  1.00 31.44     0.266 C 
HETATM   10  O26   D T 510     -25.142 -17.881 -32.739  1.00 37.82    -0.269 OA
ENDROOT
BRANCH   3  11
HETATM   11  N5    D T 510     -21.894 -11.869 -31.522  1.00 21.79    -0.187 NA
HETATM   12  C6    D T 510     -20.609 -11.958 -31.974  1.00 24.46     0.281 C 
HETATM   13  O8    D T 510     -20.307 -12.522 -33.010  1.00 47.57    -0.265 OA
BRANCH  12  14
HETATM   14  C7    D T 510     -19.547 -11.311 -31.166  1.00 27.20     0.058 A 
HETATM   15  C9    D T 510     -19.867 -10.701 -29.953  1.00 26.30     0.006 A 
HETATM   16  C10   D T 510     -18.906 -10.075 -29.180  1.00 29.02     0.017 A 
HETATM   17  C24   D T 510     -17.555 -10.022 -29.587  1.00 25.79     0.056 A 
HETATM   18  C11   D T 510     -17.247 -10.636 -30.817  1.00 33.12     0.017 A 
HETATM   19  C12   D T 510     -18.216 -11.253 -31.576  1.00 29.35     0.006 A 
BRANCH  17  20
HETATM   20  N17   D T 510     -16.573  -9.405 -28.848  1.00 32.10    -0.344 N 
HETATM   21  C18   D T 510     -16.857  -8.116 -28.224  1.00 33.06     0.137 C 
HETATM   22  C19   D T 510     -15.952  -7.871 -27.025  1.00 45.16     0.274 C 
HETATM   23  N20   D T 510     -14.541  -8.052 -27.292  1.00 53.73     0.143 N 
HETATM   24  C21   D T 510     -14.333  -9.386 -27.820  1.00 50.63     0.274 C 
HETATM   25  C23   D T 510     -13.691  -7.727 -26.165  1.00 47.36     0.286 C 
HETATM   26  C22   D T 510     -15.169  -9.734 -29.050  1.00 35.17     0.137 C 
ENDBRANCH  17  20
ENDBRANCH  12  14
ENDBRANCH   3  11
BRANCH   9  27
HETATM   27  C20   D T 510     -23.035 -17.924 -31.606  1.00 31.66     0.216 C 
BRANCH  27  28
HETATM   28  C27   D T 510     -23.555 -18.396 -30.261  1.00 37.14     0.014 A 
HETATM   29  C28   D T 510     -24.252 -17.539 -29.417  1.00 32.75    -0.001 A 
HETATM   30  C31   D T 510     -24.729 -17.989 -28.191  1.00 32.33    -0.000 A 
HETATM   31  C35   D T 510     -24.516 -19.304 -27.806  1.00 38.48    -0.000 A 
HETATM   32  C33   D T 510     -23.823 -20.167 -28.647  1.00 37.62    -0.000 A 
HETATM   33  C29   D T 510     -23.347 -19.717 -29.867  1.00 37.41    -0.001 A 
ENDBRANCH  27  28
BRANCH  27  34
HETATM   34  O34   D T 510     -22.619 -18.977 -32.425  1.00 47.15    -0.340 OA
HETATM   35  C36   D T 510     -21.834 -18.563 -33.521  1.00 30.29     0.175 C 
ENDBRANCH  27  34
ENDBRANCH   9  27
TORSDOF 6
ENDMDL
MODEL 7
REMARK VINA RESULT:      -6.0      4.171     12.028
REMARK  6 active torsions:
REMARK  status: ('A' for Active; 'I' for Inactive)
REMARK       I    between atoms: N1_1  and  C25_25 
REMARK    1  A    between atoms: C3_3  and  N5_5 
REMARK       I    between atoms: N5_5  and  C6_6 
REMARK    2  A    between atoms: C6_6  and  C7_7 
REMARK    3  A    between atoms: N17_17  and  C24_24 
REMARK    4  A    between atoms: C25_25  and  C20_32 
REMARK    5  A    between atoms: C27_27  and  C20_32 
REMARK    6  A    between atoms: C20_32  and  O34_35 
ROOT
HETATM    1  N1    D T 510     -25.876 -20.421 -31.171  1.00 27.33    -0.308 N 
HETATM    2  N2    D T 510     -22.842 -21.152 -29.391  1.00 25.81    -0.149 NA
HETATM    3  C3    D T 510     -22.618 -19.121 -29.983  1.00 28.92     0.186 A 
HETATM    4  N4    D T 510     -22.000 -20.107 -29.351  1.00 26.85    -0.129 NA
HETATM    5  C13   D T 510     -23.972 -20.847 -30.028  1.00 21.37     0.104 A 
HETATM    6  C14   D T 510     -23.887 -19.551 -30.430  1.00 21.42     0.055 A 
HETATM    7  C15   D T 510     -25.124 -19.150 -31.152  1.00 23.53     0.136 A 
HETATM    8  C16   D T 510     -25.251 -21.503 -30.398  1.00 21.29     0.152 A 
HETATM    9  C25   D T 510     -27.031 -20.520 -31.858  1.00 31.44     0.266 C 
HETATM   10  O26   D T 510     -27.668 -21.560 -31.890  1.00 37.82    -0.269 OA
ENDROOT
BRANCH   3  11
HETATM   11  N5    D T 510     -22.065 -17.853 -30.148  1.00 21.79    -0.187 NA
HETATM   12  C6    D T 510     -22.465 -16.678 -29.578  1.00 24.46     0.281 C 
HETATM   13  O8    D T 510     -23.408 -16.600 -28.811  1.00 47.57    -0.265 OA
BRANCH  12  14
HETATM   14  C7    D T 510     -21.690 -15.455 -29.899  1.00 27.20     0.058 A 
HETATM   15  C9    D T 510     -21.421 -14.518 -28.901  1.00 26.30     0.006 A 
HETATM   16  C10   D T 510     -20.713 -13.359 -29.167  1.00 29.02     0.017 A 
HETATM   17  C24   D T 510     -20.232 -13.072 -30.463  1.00 25.79     0.056 A 
HETATM   18  C11   D T 510     -20.517 -14.024 -31.461  1.00 33.12     0.017 A 
HETATM   19  C12   D T 510     -21.226 -15.171 -31.181  1.00 29.35     0.006 A 
BRANCH  17  20
HETATM   20  N17   D T 510     -19.530 -11.930 -30.765  1.00 32.10    -0.344 N 
HETATM   21  C18   D T 510     -19.475 -10.849 -29.786  1.00 33.06     0.137 C 
HETATM   22  C19   D T 510     -18.247  -9.973 -29.997  1.00 45.16     0.274 C 
HETATM   23  N20   D T 510     -18.078  -9.495 -31.353  1.00 53.73     0.143 N 
HETATM   24  C21   D T 510     -18.050 -10.633 -32.250  1.00 50.63     0.274 C 
HETATM   25  C23   D T 510     -16.956  -8.592 -31.513  1.00 47.36     0.286 C 
HETATM   26  C22   D T 510     -19.253 -11.568 -32.149  1.00 35.17     0.137 C 
ENDBRANCH  17  20
ENDBRANCH  12  14
ENDBRANCH   3  11
BRANCH   9  27
HETATM   27  C20   D T 510     -27.524 -19.287 -32.620  1.00 31.66     0.216 C 
BRANCH  27  28
HETATM   28  C27   D T 510     -26.730 -19.191 -33.909  1.00 37.14     0.014 A 
HETATM   29  C28   D T 510     -26.341 -20.331 -34.602  1.00 32.75    -0.001 A 
HETATM   30  C31   D T 510     -25.621 -20.227 -35.787  1.00 32.33    -0.000 A 
HETATM   31  C35   D T 510     -25.291 -18.976 -36.288  1.00 38.48    -0.000 A 
HETATM   32  C33   D T 510     -25.679 -17.831 -35.601  1.00 37.62    -0.000 A 
HETATM   33  C29   D T 510     -26.396 -17.937 -34.420  1.00 37.41    -0.001 A 
ENDBRANCH  27  28
BRANCH  27  34
HETATM   34  O34   D T 510     -28.891 -19.474 -32.840  1.00 47.15    -0.340 OA
HETATM   35  C36   D T 510     -29.709 -18.639 -32.051  1.00 30.29     0.175 C 
ENDBRANCH  27  34
ENDBRANCH   9  27
TORSDOF 6
ENDMDL
MODEL 8
REMARK VINA RESULT:      -5.8      3.598     10.660
REMARK  6 active torsions:
REMARK  status: ('A' for Active; 'I' for Inactive)
REMARK       I    between atoms: N1_1  and  C25_25 
REMARK    1  A    between atoms: C3_3  and  N5_5 
REMARK       I    between atoms: N5_5  and  C6_6 
REMARK    2  A    between atoms: C6_6  and  C7_7 
REMARK    3  A    between atoms: N17_17  and  C24_24 
REMARK    4  A    between atoms: C25_25  and  C20_32 
REMARK    5  A    between atoms: C27_27  and  C20_32 
REMARK    6  A    between atoms: C20_32  and  O34_35 
ROOT
HETATM    1  N1    D T 510     -24.094 -15.600 -32.618  1.00 27.33    -0.308 N 
HETATM    2  N2    D T 510     -24.113 -12.105 -33.452  1.00 25.81    -0.149 NA
HETATM    3  C3    D T 510     -22.062 -12.540 -33.095  1.00 28.92     0.186 A 
HETATM    4  N4    D T 510     -22.888 -11.557 -33.414  1.00 26.85    -0.129 NA
HETATM    5  C13   D T 510     -24.076 -13.407 -33.171  1.00 21.37     0.104 A 
HETATM    6  C14   D T 510     -22.781 -13.745 -32.934  1.00 21.42     0.055 A 
HETATM    7  C15   D T 510     -22.674 -15.194 -32.610  1.00 23.53     0.136 A 
HETATM    8  C16   D T 510     -25.020 -14.546 -33.057  1.00 21.29     0.152 A 
HETATM    9  C25   D T 510     -24.450 -16.843 -32.241  1.00 31.44     0.266 C 
HETATM   10  O26   D T 510     -25.617 -17.200 -32.237  1.00 37.82    -0.269 OA
ENDROOT
BRANCH   3  11
HETATM   11  N5    D T 510     -20.685 -12.371 -32.962  1.00 21.79    -0.187 NA
HETATM   12  C6    D T 510     -19.996 -11.863 -31.898  1.00 24.46     0.281 C 
HETATM   13  O8    D T 510     -20.539 -11.477 -30.880  1.00 47.57    -0.265 OA
BRANCH  12  14
HETATM   14  C7    D T 510     -18.517 -11.809 -31.995  1.00 27.20     0.058 A 
HETATM   15  C9    D T 510     -17.773 -11.205 -30.981  1.00 26.30     0.006 A 
HETATM   16  C10   D T 510     -16.393 -11.124 -31.045  1.00 29.02     0.017 A 
HETATM   17  C24   D T 510     -15.675 -11.647 -32.143  1.00 25.79     0.056 A 
HETATM   18  C11   D T 510     -16.440 -12.247 -33.162  1.00 33.12     0.017 A 
HETATM   19  C12   D T 510     -17.813 -12.318 -33.085  1.00 29.35     0.006 A 
BRANCH  17  20
HETATM   20  N17   D T 510     -14.306 -11.580 -32.242  1.00 32.10    -0.344 N 
HETATM   21  C18   D T 510     -13.608 -10.423 -31.689  1.00 33.06     0.137 C 
HETATM   22  C19   D T 510     -12.161 -10.758 -31.355  1.00 45.16     0.274 C 
HETATM   23  N20   D T 510     -11.424 -11.378 -32.436  1.00 53.73     0.143 N 
HETATM   24  C21   D T 510     -12.134 -12.567 -32.863  1.00 50.63     0.274 C 
HETATM   25  C23   D T 510     -10.027 -11.606 -32.129  1.00 47.36     0.286 C 
HETATM   26  C22   D T 510     -13.593 -12.345 -33.256  1.00 35.17     0.137 C 
ENDBRANCH  17  20
ENDBRANCH  12  14
ENDBRANCH   3  11
BRANCH   9  27
HETATM   27  C20   D T 510     -23.345 -17.806 -31.799  1.00 31.66     0.216 C 
BRANCH  27  28
HETATM   28  C27   D T 510     -23.684 -18.290 -30.401  1.00 37.14     0.014 A 
HETATM   29  C28   D T 510     -23.818 -19.644 -30.120  1.00 32.75    -0.001 A 
HETATM   30  C31   D T 510     -24.120 -20.072 -28.832  1.00 32.33    -0.000 A 
HETATM   31  C35   D T 510     -24.285 -19.143 -27.816  1.00 38.48    -0.000 A 
HETATM   32  C33   D T 510     -24.150 -17.787 -28.089  1.00 37.62    -0.000 A 
HETATM   33  C29   D T 510     -23.849 -17.362 -29.373  1.00 37.41    -0.001 A 
ENDBRANCH  27  28
BRANCH  27  34
HETATM   34  O34   D T 510     -23.317 -18.841 -32.737  1.00 47.15    -0.340 OA
HETATM   35  C36   D T 510     -22.293 -18.706 -33.697  1.00 30.29     0.175 C 
ENDBRANCH  27  34
ENDBRANCH   9  27
TORSDOF 6
ENDMDL
MODEL 9
REMARK VINA RESULT:      -5.7      5.580     10.843
REMARK  6 active torsions:
REMARK  status: ('A' for Active; 'I' for Inactive)
REMARK       I    between atoms: N1_1  and  C25_25 
REMARK    1  A    between atoms: C3_3  and  N5_5 
REMARK       I    between atoms: N5_5  and  C6_6 
REMARK    2  A    between atoms: C6_6  and  C7_7 
REMARK    3  A    between atoms: N17_17  and  C24_24 
REMARK    4  A    between atoms: C25_25  and  C20_32 
REMARK    5  A    between atoms: C27_27  and  C20_32 
REMARK    6  A    between atoms: C20_32  and  O34_35 
ROOT
HETATM    1  N1    D T 510     -24.185 -15.581 -32.852  1.00 27.33    -0.308 N 
HETATM    2  N2    D T 510     -23.907 -12.249 -34.168  1.00 25.81    -0.149 NA
HETATM    3  C3    D T 510     -21.913 -12.989 -34.208  1.00 28.92     0.186 A 
HETATM    4  N4    D T 510     -22.644 -11.919 -34.480  1.00 26.85    -0.129 NA
HETATM    5  C13   D T 510     -23.989 -13.499 -33.713  1.00 21.37     0.104 A 
HETATM    6  C14   D T 510     -22.737 -14.027 -33.718  1.00 21.42     0.055 A 
HETATM    7  C15   D T 510     -22.762 -15.427 -33.216  1.00 23.53     0.136 A 
HETATM    8  C16   D T 510     -25.030 -14.439 -33.228  1.00 21.29     0.152 A 
HETATM    9  C25   D T 510     -24.613 -16.695 -32.227  1.00 31.44     0.266 C 
HETATM   10  O26   D T 510     -25.783 -16.844 -31.915  1.00 37.82    -0.269 OA
ENDROOT
BRANCH   3  11
HETATM   11  N5    D T 510     -20.535 -13.046 -34.407  1.00 21.79    -0.187 NA
HETATM   12  C6    D T 510     -19.848 -13.742 -35.360  1.00 24.46     0.281 C 
HETATM   13  O8    D T 510     -20.395 -14.435 -36.198  1.00 47.57    -0.265 OA
BRANCH  12  14
HETATM   14  C7    D T 510     -18.370 -13.618 -35.374  1.00 27.20     0.058 A 
HETATM   15  C9    D T 510     -17.625 -14.269 -36.358  1.00 26.30     0.006 A 
HETATM   16  C10   D T 510     -16.245 -14.187 -36.394  1.00 29.02     0.017 A 
HETATM   17  C24   D T 510     -15.527 -13.442 -35.434  1.00 25.79     0.056 A 
HETATM   18  C11   D T 510     -16.291 -12.795 -34.444  1.00 33.12     0.017 A 
HETATM   19  C12   D T 510     -17.665 -12.889 -34.419  1.00 29.35     0.006 A 
BRANCH  17  20
HETATM   20  N17   D T 510     -14.155 -13.342 -35.436  1.00 32.10    -0.344 N 
HETATM   21  C18   D T 510     -13.403 -13.905 -36.552  1.00 33.06     0.137 C 
HETATM   22  C19   D T 510     -12.047 -13.228 -36.703  1.00 45.16     0.274 C 
HETATM   23  N20   D T 510     -11.265 -13.175 -35.487  1.00 53.73     0.143 N 
HETATM   24  C21   D T 510     -12.048 -12.519 -34.457  1.00 50.63     0.274 C 
HETATM   25  C23   D T 510      -9.944 -12.608 -35.671  1.00 47.36     0.286 C 
HETATM   26  C22   D T 510     -13.420 -13.135 -34.195  1.00 35.17     0.137 C 
ENDBRANCH  17  20
ENDBRANCH  12  14
ENDBRANCH   3  11
BRANCH   9  27
HETATM   27  C20   D T 510     -23.582 -17.779 -31.901  1.00 31.66     0.216 C 
BRANCH  27  28
HETATM   28  C27   D T 510     -23.842 -18.253 -30.483  1.00 37.14     0.014 A 
HETATM   29  C28   D T 510     -24.063 -19.597 -30.202  1.00 32.75    -0.001 A 
HETATM   30  C31   D T 510     -24.291 -20.016 -28.896  1.00 32.33    -0.000 A 
HETATM   31  C35   D T 510     -24.293 -19.092 -27.862  1.00 38.48    -0.000 A 
HETATM   32  C33   D T 510     -24.070 -17.747 -28.136  1.00 37.62    -0.000 A 
HETATM   33  C29   D T 510     -23.843 -17.330 -29.438  1.00 37.41    -0.001 A 
ENDBRANCH  27  28
BRANCH  27  34
HETATM   34  O34   D T 510     -23.752 -18.791 -32.849  1.00 47.15    -0.340 OA
HETATM   35  C36   D T 510     -22.671 -18.911 -33.747  1.00 30.29     0.175 C 
ENDBRANCH  27  34
ENDBRANCH   9  27
TORSDOF 6
ENDMDL
