MODEL 1
REMARK VINA RESULT:    -6.566      0.000      0.000
REMARK INTER + INTRA:         -10.029
REMARK INTER:                  -8.869
REMARK INTRA:                  -1.160
REMARK UNBOUND:                -1.160
REMARK  6 active torsions:
REMARK  status: ('A' for Active; 'I' for Inactive)
REMARK       I    between atoms: N1_1  and  C25_25 
REMARK    1  A    between atoms: C3_3  and  N5_5 
REMARK       I    between atoms: N5_5  and  C6_6 
REMARK    2  A    between atoms: C6_6  and  C7_7 
REMARK    3  A    between atoms: N17_17  and  C24_24 
REMARK    4  A    between atoms: C25_25  and  C20_32 
REMARK    5  A    between atoms: C27_27  and  C20_32 
REMARK    6  A    between atoms: C20_32  and  O34_35 
ROOT
HETATM    1  N1    D T 510     -20.357 -10.784 -30.732  1.00 27.33    -0.308 N 
HETATM    2  N2    D T 510     -20.580  -7.500 -29.293  1.00 25.81    -0.149 NA
HETATM    3  C3    D T 510     -18.925  -8.389 -28.297  1.00 28.92     0.186 A 
HETATM    4  N4    D T 510     -19.649  -7.283 -28.351  1.00 26.85    -0.129 NA
HETATM    5  C13   D T 510     -20.457  -8.711 -29.834  1.00 21.37     0.104 A 
HETATM    6  C14   D T 510     -19.406  -9.330 -29.234  1.00 21.42     0.055 A 
HETATM    7  C15   D T 510     -19.218 -10.695 -29.796  1.00 23.53     0.136 A 
HETATM    8  C16   D T 510     -21.119  -9.536 -30.875  1.00 21.29     0.152 A 
HETATM    9  C25   D T 510     -20.626 -11.940 -31.370  1.00 31.44     0.266 C 
HETATM   10  O26   D T 510     -21.562 -12.038 -32.147  1.00 37.82    -0.269 OA
ENDROOT
BRANCH   3  11
HETATM   11  N5    D T 510     -17.843  -8.554 -27.435  1.00 21.79    -0.187 NA
HETATM   12  C6    D T 510     -16.578  -8.055 -27.563  1.00 24.46     0.281 C 
HETATM   13  O8    D T 510     -16.230  -7.364 -28.503  1.00 47.57    -0.265 OA
BRANCH  12  14
HETATM   14  C7    D T 510     -15.603  -8.358 -26.487  1.00 27.20     0.058 A 
HETATM   15  C9    D T 510     -14.613  -9.319 -26.693  1.00 26.30     0.006 A 
HETATM   16  C10   D T 510     -13.696  -9.637 -25.707  1.00 29.02     0.017 A 
HETATM   17  C24   D T 510     -13.724  -9.006 -24.445  1.00 25.79     0.056 A 
HETATM   18  C11   D T 510     -14.734  -8.043 -24.249  1.00 33.12     0.017 A 
HETATM   19  C12   D T 510     -15.641  -7.739 -25.239  1.00 29.35     0.006 A 
BRANCH  17  20
HETATM   20  N17   D T 510     -12.833  -9.300 -23.440  1.00 32.10    -0.344 N 
HETATM   21  C18   D T 510     -12.689 -10.685 -23.001  1.00 33.06     0.137 C 
HETATM   22  C19   D T 510     -11.328 -10.922 -22.360  1.00 45.16     0.274 C 
HETATM   23  N20   D T 510     -10.983  -9.978 -21.319  1.00 53.73     0.143 N 
HETATM   24  C21   D T 510     -11.061  -8.636 -21.861  1.00 50.63     0.274 C 
HETATM   25  C23   D T 510      -9.727 -10.274 -20.660  1.00 47.36     0.286 C 
HETATM   26  C22   D T 510     -12.397  -8.273 -22.504  1.00 35.17     0.137 C 
ENDBRANCH  17  20
ENDBRANCH  12  14
ENDBRANCH   3  11
BRANCH   9  27
HETATM   27  C20   D T 510     -19.727 -13.147 -31.086  1.00 31.66     0.216 C 
BRANCH  27  28
HETATM   28  C27   D T 510     -20.605 -14.260 -30.545  1.00 37.14     0.014 A 
HETATM   29  C28   D T 510     -20.747 -15.462 -31.229  1.00 32.75    -0.001 A 
HETATM   30  C31   D T 510     -21.548 -16.476 -30.717  1.00 32.33    -0.000 A 
HETATM   31  C35   D T 510     -22.208 -16.293 -29.511  1.00 38.48    -0.000 A 
HETATM   32  C33   D T 510     -22.068 -15.095 -28.820  1.00 37.62    -0.000 A 
HETATM   33  C29   D T 510     -21.270 -14.085 -29.333  1.00 37.41    -0.001 A 
ENDBRANCH  27  28
BRANCH  27  34
HETATM   34  O34   D T 510     -19.113 -13.481 -32.295  1.00 47.15    -0.340 OA
HETATM   35  C36   D T 510     -17.826 -12.923 -32.448  1.00 30.29     0.175 C 
ENDBRANCH  27  34
ENDBRANCH   9  27
TORSDOF 6
ENDMDL
MODEL 2
REMARK VINA RESULT:    -6.499      6.700     10.665
REMARK INTER + INTRA:          -9.939
REMARK INTER:                  -8.937
REMARK INTRA:                  -1.002
REMARK UNBOUND:                -1.160
REMARK  6 active torsions:
REMARK  status: ('A' for Active; 'I' for Inactive)
REMARK       I    between atoms: N1_1  and  C25_25 
REMARK    1  A    between atoms: C3_3  and  N5_5 
REMARK       I    between atoms: N5_5  and  C6_6 
REMARK    2  A    between atoms: C6_6  and  C7_7 
REMARK    3  A    between atoms: N17_17  and  C24_24 
REMARK    4  A    between atoms: C25_25  and  C20_32 
REMARK    5  A    between atoms: C27_27  and  C20_32 
REMARK    6  A    between atoms: C20_32  and  O34_35 
ROOT
HETATM    1  N1    D T 510     -16.628 -11.149 -33.795  1.00 27.33    -0.308 N 
HETATM    2  N2    D T 510     -19.866  -9.838 -32.952  1.00 25.81    -0.149 NA
HETATM    3  C3    D T 510     -19.960 -11.875 -32.347  1.00 28.92     0.186 A 
HETATM    4  N4    D T 510     -20.674 -10.763 -32.410  1.00 26.85    -0.129 NA
HETATM    5  C13   D T 510     -18.662 -10.340 -33.226  1.00 21.37     0.104 A 
HETATM    6  C14   D T 510     -18.662 -11.648 -32.856  1.00 21.42     0.055 A 
HETATM    7  C15   D T 510     -17.339 -12.267 -33.141  1.00 23.53     0.136 A 
HETATM    8  C16   D T 510     -17.370  -9.881 -33.794  1.00 21.29     0.152 A 
HETATM    9  C25   D T 510     -15.407 -11.339 -34.331  1.00 31.44     0.266 C 
HETATM   10  O26   D T 510     -14.802 -10.432 -34.879  1.00 37.82    -0.269 OA
ENDROOT
BRANCH   3  11
HETATM   11  N5    D T 510     -20.451 -13.072 -31.831  1.00 21.79    -0.187 NA
HETATM   12  C6    D T 510     -20.589 -13.433 -30.521  1.00 24.46     0.281 C 
HETATM   13  O8    D T 510     -20.281 -12.704 -29.597  1.00 47.57    -0.265 OA
BRANCH  12  14
HETATM   14  C7    D T 510     -21.166 -14.768 -30.230  1.00 27.20     0.058 A 
HETATM   15  C9    D T 510     -20.671 -15.899 -30.881  1.00 26.30     0.006 A 
HETATM   16  C10   D T 510     -21.193 -17.158 -30.645  1.00 29.02     0.017 A 
HETATM   17  C24   D T 510     -22.255 -17.355 -29.735  1.00 25.79     0.056 A 
HETATM   18  C11   D T 510     -22.749 -16.204 -29.091  1.00 33.12     0.017 A 
HETATM   19  C12   D T 510     -22.220 -14.957 -29.339  1.00 29.35     0.006 A 
BRANCH  17  20
HETATM   20  N17   D T 510     -22.803 -18.590 -29.480  1.00 32.10    -0.344 N 
HETATM   21  C18   D T 510     -22.563 -19.682 -30.417  1.00 33.06     0.137 C 
HETATM   22  C19   D T 510     -22.709 -21.037 -29.737  1.00 45.16     0.274 C 
HETATM   23  N20   D T 510     -23.943 -21.207 -29.000  1.00 53.73     0.143 N 
HETATM   24  C21   D T 510     -24.059 -20.137 -28.029  1.00 50.63     0.274 C 
HETATM   25  C23   D T 510     -24.102 -22.533 -28.436  1.00 47.36     0.286 C 
HETATM   26  C22   D T 510     -23.959 -18.726 -28.604  1.00 35.17     0.137 C 
ENDBRANCH  17  20
ENDBRANCH  12  14
ENDBRANCH   3  11
BRANCH   9  27
HETATM   27  C20   D T 510     -14.794 -12.740 -34.250  1.00 31.66     0.216 C 
BRANCH  27  28
HETATM   28  C27   D T 510     -14.811 -13.334 -35.646  1.00 37.14     0.014 A 
HETATM   29  C28   D T 510     -16.009 -13.615 -36.294  1.00 32.75    -0.001 A 
HETATM   30  C31   D T 510     -16.008 -14.151 -37.577  1.00 32.33    -0.000 A 
HETATM   31  C35   D T 510     -14.806 -14.404 -38.221  1.00 38.48    -0.000 A 
HETATM   32  C33   D T 510     -13.605 -14.123 -37.580  1.00 37.62    -0.000 A 
HETATM   33  C29   D T 510     -13.607 -13.589 -36.301  1.00 37.41    -0.001 A 
ENDBRANCH  27  28
BRANCH  27  34
HETATM   34  O34   D T 510     -13.501 -12.581 -33.746  1.00 47.15    -0.340 OA
HETATM   35  C36   D T 510     -13.462 -11.991 -32.466  1.00 30.29     0.175 C 
ENDBRANCH  27  34
ENDBRANCH   9  27
TORSDOF 6
ENDMDL
MODEL 3
REMARK VINA RESULT:    -6.289     10.882     17.841
REMARK INTER + INTRA:          -9.655
REMARK INTER:                  -8.650
REMARK INTRA:                  -1.005
REMARK UNBOUND:                -1.160
REMARK  6 active torsions:
REMARK  status: ('A' for Active; 'I' for Inactive)
REMARK       I    between atoms: N1_1  and  C25_25 
REMARK    1  A    between atoms: C3_3  and  N5_5 
REMARK       I    between atoms: N5_5  and  C6_6 
REMARK    2  A    between atoms: C6_6  and  C7_7 
REMARK    3  A    between atoms: N17_17  and  C24_24 
REMARK    4  A    between atoms: C25_25  and  C20_32 
REMARK    5  A    between atoms: C27_27  and  C20_32 
REMARK    6  A    between atoms: C20_32  and  O34_35 
ROOT
HETATM    1  N1    D T 510     -26.449 -18.212 -31.891  1.00 27.33    -0.308 N 
HETATM    2  N2    D T 510     -29.421 -19.318 -33.580  1.00 25.81    -0.149 NA
HETATM    3  C3    D T 510     -29.110 -20.782 -32.070  1.00 28.92     0.186 A 
HETATM    4  N4    D T 510     -29.910 -20.460 -33.074  1.00 26.85    -0.129 NA
HETATM    5  C13   D T 510     -28.339 -18.911 -32.917  1.00 21.37     0.104 A 
HETATM    6  C14   D T 510     -28.091 -19.814 -31.932  1.00 21.42     0.055 A 
HETATM    7  C15   D T 510     -26.887 -19.415 -31.154  1.00 23.53     0.136 A 
HETATM    8  C16   D T 510     -27.372 -17.786 -32.952  1.00 21.29     0.152 A 
HETATM    9  C25   D T 510     -25.290 -17.603 -31.574  1.00 31.44     0.266 C 
HETATM   10  O26   D T 510     -24.907 -16.609 -32.170  1.00 37.82    -0.269 OA
ENDROOT
BRANCH   3  11
HETATM   11  N5    D T 510     -29.292 -21.915 -31.278  1.00 21.79    -0.187 NA
HETATM   12  C6    D T 510     -28.542 -23.056 -31.254  1.00 24.46     0.281 C 
HETATM   13  O8    D T 510     -27.567 -23.224 -31.963  1.00 47.57    -0.265 OA
BRANCH  12  14
HETATM   14  C7    D T 510     -28.933 -24.118 -30.295  1.00 27.20     0.058 A 
HETATM   15  C9    D T 510     -29.298 -25.381 -30.763  1.00 26.30     0.006 A 
HETATM   16  C10   D T 510     -29.682 -26.391 -29.900  1.00 29.02     0.017 A 
HETATM   17  C24   D T 510     -29.724 -26.188 -28.503  1.00 25.79     0.056 A 
HETATM   18  C11   D T 510     -29.359 -24.907 -28.045  1.00 33.12     0.017 A 
HETATM   19  C12   D T 510     -28.982 -23.911 -28.918  1.00 29.35     0.006 A 
BRANCH  17  20
HETATM   20  N17   D T 510     -30.105 -27.166 -27.616  1.00 32.10    -0.344 N 
HETATM   21  C18   D T 510     -29.384 -28.435 -27.603  1.00 33.06     0.137 C 
HETATM   22  C19   D T 510     -29.512 -29.131 -26.254  1.00 45.16     0.274 C 
HETATM   23  N20   D T 510     -30.872 -29.268 -25.779  1.00 53.73     0.143 N 
HETATM   24  C21   D T 510     -31.486 -27.956 -25.733  1.00 50.63     0.274 C 
HETATM   25  C23   D T 510     -30.981 -30.012 -24.539  1.00 47.36     0.286 C 
HETATM   26  C22   D T 510     -31.445 -27.175 -27.044  1.00 35.17     0.137 C 
ENDBRANCH  17  20
ENDBRANCH  12  14
ENDBRANCH   3  11
BRANCH   9  27
HETATM   27  C20   D T 510     -24.448 -18.199 -30.443  1.00 31.66     0.216 C 
BRANCH  27  28
HETATM   28  C27   D T 510     -22.996 -18.171 -30.883  1.00 37.14     0.014 A 
HETATM   29  C28   D T 510     -22.050 -17.415 -30.199  1.00 32.75    -0.001 A 
HETATM   30  C31   D T 510     -20.722 -17.407 -30.610  1.00 32.33    -0.000 A 
HETATM   31  C35   D T 510     -20.332 -18.161 -31.706  1.00 38.48    -0.000 A 
HETATM   32  C33   D T 510     -21.272 -18.922 -32.393  1.00 37.62    -0.000 A 
HETATM   33  C29   D T 510     -22.595 -18.929 -31.982  1.00 37.41    -0.001 A 
ENDBRANCH  27  28
BRANCH  27  34
HETATM   34  O34   D T 510     -24.685 -17.415 -29.311  1.00 47.15    -0.340 OA
HETATM   35  C36   D T 510     -24.954 -18.167 -28.149  1.00 30.29     0.175 C 
ENDBRANCH  27  34
ENDBRANCH   9  27
TORSDOF 6
ENDMDL
MODEL 4
REMARK VINA RESULT:    -6.281     15.392     18.707
REMARK INTER + INTRA:          -9.644
REMARK INTER:                  -8.987
REMARK INTRA:                  -0.657
REMARK UNBOUND:                -1.160
REMARK  6 active torsions:
REMARK  status: ('A' for Active; 'I' for Inactive)
REMARK       I    between atoms: N1_1  and  C25_25 
REMARK    1  A    between atoms: C3_3  and  N5_5 
REMARK       I    between atoms: N5_5  and  C6_6 
REMARK    2  A    between atoms: C6_6  and  C7_7 
REMARK    3  A    between atoms: N17_17  and  C24_24 
REMARK    4  A    between atoms: C25_25  and  C20_32 
REMARK    5  A    between atoms: C27_27  and  C20_32 
REMARK    6  A    between atoms: C20_32  and  O34_35 
ROOT
HETATM    1  N1    D T 510     -30.662 -16.787 -34.624  1.00 27.33    -0.308 N 
HETATM    2  N2    D T 510     -32.640 -19.185 -32.822  1.00 25.81    -0.149 NA
HETATM    3  C3    D T 510     -30.988 -20.314 -33.543  1.00 28.92     0.186 A 
HETATM    4  N4    D T 510     -32.113 -20.419 -32.854  1.00 26.85    -0.129 NA
HETATM    5  C13   D T 510     -31.873 -18.308 -33.469  1.00 21.37     0.104 A 
HETATM    6  C14   D T 510     -30.793 -18.977 -33.953  1.00 21.42     0.055 A 
HETATM    7  C15   D T 510     -29.896 -18.047 -34.691  1.00 23.53     0.136 A 
HETATM    8  C16   D T 510     -31.869 -16.859 -33.788  1.00 21.29     0.152 A 
HETATM    9  C25   D T 510     -30.243 -15.697 -35.296  1.00 31.44     0.266 C 
HETATM   10  O26   D T 510     -30.860 -14.645 -35.257  1.00 37.82    -0.269 OA
ENDROOT
BRANCH   3  11
HETATM   11  N5    D T 510     -30.139 -21.391 -33.792  1.00 21.79    -0.187 NA
HETATM   12  C6    D T 510     -29.076 -21.817 -33.048  1.00 24.46     0.281 C 
HETATM   13  O8    D T 510     -28.727 -21.272 -32.017  1.00 47.57    -0.265 OA
BRANCH  12  14
HETATM   14  C7    D T 510     -28.339 -23.015 -33.519  1.00 27.20     0.058 A 
HETATM   15  C9    D T 510     -28.534 -24.245 -32.891  1.00 26.30     0.006 A 
HETATM   16  C10   D T 510     -27.854 -25.380 -33.294  1.00 29.02     0.017 A 
HETATM   17  C24   D T 510     -26.927 -25.343 -34.359  1.00 25.79     0.056 A 
HETATM   18  C11   D T 510     -26.735 -24.093 -34.978  1.00 33.12     0.017 A 
HETATM   19  C12   D T 510     -27.419 -22.972 -34.564  1.00 29.35     0.006 A 
BRANCH  17  20
HETATM   20  N17   D T 510     -26.229 -26.449 -34.783  1.00 32.10    -0.344 N 
HETATM   21  C18   D T 510     -25.206 -26.293 -35.812  1.00 33.06     0.137 C 
HETATM   22  C19   D T 510     -24.175 -27.412 -35.741  1.00 45.16     0.274 C 
HETATM   23  N20   D T 510     -24.738 -28.745 -35.725  1.00 53.73     0.143 N 
HETATM   24  C21   D T 510     -25.672 -28.845 -34.621  1.00 50.63     0.274 C 
HETATM   25  C23   D T 510     -23.741 -29.796 -35.748  1.00 47.36     0.286 C 
HETATM   26  C22   D T 510     -26.774 -27.788 -34.606  1.00 35.17     0.137 C 
ENDBRANCH  17  20
ENDBRANCH  12  14
ENDBRANCH   3  11
BRANCH   9  27
HETATM   27  C20   D T 510     -28.964 -15.813 -36.131  1.00 31.66     0.216 C 
BRANCH  27  28
HETATM   28  C27   D T 510     -29.291 -16.633 -37.365  1.00 37.14     0.014 A 
HETATM   29  C28   D T 510     -28.419 -17.609 -37.833  1.00 32.75    -0.001 A 
HETATM   30  C31   D T 510     -28.737 -18.358 -38.960  1.00 32.33    -0.000 A 
HETATM   31  C35   D T 510     -29.935 -18.137 -39.623  1.00 38.48    -0.000 A 
HETATM   32  C33   D T 510     -30.813 -17.164 -39.159  1.00 37.62    -0.000 A 
HETATM   33  C29   D T 510     -30.494 -16.418 -38.036  1.00 37.41    -0.001 A 
ENDBRANCH  27  28
BRANCH  27  34
HETATM   34  O34   D T 510     -28.568 -14.509 -36.437  1.00 47.15    -0.340 OA
HETATM   35  C36   D T 510     -27.171 -14.320 -36.399  1.00 30.29     0.175 C 
ENDBRANCH  27  34
ENDBRANCH   9  27
TORSDOF 6
ENDMDL
MODEL 5
REMARK VINA RESULT:    -6.280      3.805      7.338
REMARK INTER + INTRA:          -9.643
REMARK INTER:                  -8.558
REMARK INTRA:                  -1.084
REMARK UNBOUND:                -1.160
REMARK  6 active torsions:
REMARK  status: ('A' for Active; 'I' for Inactive)
REMARK       I    between atoms: N1_1  and  C25_25 
REMARK    1  A    between atoms: C3_3  and  N5_5 
REMARK       I    between atoms: N5_5  and  C6_6 
REMARK    2  A    between atoms: C6_6  and  C7_7 
REMARK    3  A    between atoms: N17_17  and  C24_24 
REMARK    4  A    between atoms: C25_25  and  C20_32 
REMARK    5  A    between atoms: C27_27  and  C20_32 
REMARK    6  A    between atoms: C20_32  and  O34_35 
ROOT
HETATM    1  N1    D T 510     -23.960 -16.895 -32.326  1.00 27.33    -0.308 N 
HETATM    2  N2    D T 510     -25.380 -13.741 -33.295  1.00 25.81    -0.149 NA
HETATM    3  C3    D T 510     -23.652 -13.207 -32.176  1.00 28.92     0.186 A 
HETATM    4  N4    D T 510     -24.680 -12.693 -32.833  1.00 26.85    -0.129 NA
HETATM    5  C13   D T 510     -24.817 -14.898 -32.950  1.00 21.37     0.104 A 
HETATM    6  C14   D T 510     -23.699 -14.618 -32.230  1.00 21.42     0.055 A 
HETATM    7  C15   D T 510     -23.023 -15.876 -31.811  1.00 23.53     0.136 A 
HETATM    8  C16   D T 510     -25.059 -16.351 -33.134  1.00 21.29     0.152 A 
HETATM    9  C25   D T 510     -23.773 -18.199 -32.041  1.00 31.44     0.266 C 
HETATM   10  O26   D T 510     -24.534 -19.058 -32.453  1.00 37.82    -0.269 OA
ENDROOT
BRANCH   3  11
HETATM   11  N5    D T 510     -22.678 -12.432 -31.550  1.00 21.79    -0.187 NA
HETATM   12  C6    D T 510     -21.645 -11.749 -32.125  1.00 24.46     0.281 C 
HETATM   13  O8    D T 510     -21.444 -11.737 -33.325  1.00 47.57    -0.265 OA
BRANCH  12  14
HETATM   14  C7    D T 510     -20.750 -10.971 -31.233  1.00 27.20     0.058 A 
HETATM   15  C9    D T 510     -19.984 -11.627 -30.269  1.00 26.30     0.006 A 
HETATM   16  C10   D T 510     -19.150 -10.934 -29.411  1.00 29.02     0.017 A 
HETATM   17  C24   D T 510     -19.039  -9.527 -29.470  1.00 25.79     0.056 A 
HETATM   18  C11   D T 510     -19.824  -8.878 -30.444  1.00 33.12     0.017 A 
HETATM   19  C12   D T 510     -20.651  -9.583 -31.289  1.00 29.35     0.006 A 
BRANCH  17  20
HETATM   20  N17   D T 510     -18.225  -8.804 -28.631  1.00 32.10    -0.344 N 
HETATM   21  C18   D T 510     -18.826  -7.845 -27.709  1.00 33.06     0.137 C 
HETATM   22  C19   D T 510     -17.922  -7.590 -26.510  1.00 45.16     0.274 C 
HETATM   23  N20   D T 510     -16.559  -7.244 -26.850  1.00 53.73     0.143 N 
HETATM   24  C21   D T 510     -16.006  -8.290 -27.688  1.00 50.63     0.274 C 
HETATM   25  C23   D T 510     -15.739  -6.917 -25.701  1.00 47.36     0.286 C 
HETATM   26  C22   D T 510     -16.815  -8.611 -28.943  1.00 35.17     0.137 C 
ENDBRANCH  17  20
ENDBRANCH  12  14
ENDBRANCH   3  11
BRANCH   9  27
HETATM   27  C20   D T 510     -22.574 -18.581 -31.167  1.00 31.66     0.216 C 
BRANCH  27  28
HETATM   28  C27   D T 510     -23.085 -19.460 -30.041  1.00 37.14     0.014 A 
HETATM   29  C28   D T 510     -22.861 -20.832 -30.040  1.00 32.75    -0.001 A 
HETATM   30  C31   D T 510     -23.327 -21.623 -28.996  1.00 32.33    -0.000 A 
HETATM   31  C35   D T 510     -24.018 -21.042 -27.943  1.00 38.48    -0.000 A 
HETATM   32  C33   D T 510     -24.243 -19.670 -27.936  1.00 37.62    -0.000 A 
HETATM   33  C29   D T 510     -23.778 -18.883 -28.977  1.00 37.41    -0.001 A 
ENDBRANCH  27  28
BRANCH  27  34
HETATM   34  O34   D T 510     -21.667 -19.241 -32.000  1.00 47.15    -0.340 OA
HETATM   35  C36   D T 510     -20.416 -18.598 -32.095  1.00 30.29     0.175 C 
ENDBRANCH  27  34
ENDBRANCH   9  27
TORSDOF 6
ENDMDL
MODEL 6
REMARK VINA RESULT:    -6.122      3.370      6.500
REMARK INTER + INTRA:          -9.429
REMARK INTER:                  -8.228
REMARK INTRA:                  -1.201
REMARK UNBOUND:                -1.160
REMARK  6 active torsions:
REMARK  status: ('A' for Active; 'I' for Inactive)
REMARK       I    between atoms: N1_1  and  C25_25 
REMARK    1  A    between atoms: C3_3  and  N5_5 
REMARK       I    between atoms: N5_5  and  C6_6 
REMARK    2  A    between atoms: C6_6  and  C7_7 
REMARK    3  A    between atoms: N17_17  and  C24_24 
REMARK    4  A    between atoms: C25_25  and  C20_32 
REMARK    5  A    between atoms: C27_27  and  C20_32 
REMARK    6  A    between atoms: C20_32  and  O34_35 
ROOT
HETATM    1  N1    D T 510     -23.674 -16.128 -32.238  1.00 27.33    -0.308 N 
HETATM    2  N2    D T 510     -24.743 -12.843 -33.223  1.00 25.81    -0.149 NA
HETATM    3  C3    D T 510     -23.026 -12.488 -32.020  1.00 28.92     0.186 A 
HETATM    4  N4    D T 510     -23.969 -11.872 -32.714  1.00 26.85    -0.129 NA
HETATM    5  C13   D T 510     -24.308 -14.052 -32.871  1.00 21.37     0.104 A 
HETATM    6  C14   D T 510     -23.203 -13.887 -32.096  1.00 21.42     0.055 A 
HETATM    7  C15   D T 510     -22.669 -15.208 -31.667  1.00 23.53     0.136 A 
HETATM    8  C16   D T 510     -24.678 -15.473 -33.087  1.00 21.29     0.152 A 
HETATM    9  C25   D T 510     -23.624 -17.446 -31.964  1.00 31.44     0.266 C 
HETATM   10  O26   D T 510     -24.444 -18.225 -32.423  1.00 37.82    -0.269 OA
ENDROOT
BRANCH   3  11
HETATM   11  N5    D T 510     -22.013 -11.815 -31.339  1.00 21.79    -0.187 NA
HETATM   12  C6    D T 510     -20.761 -11.501 -31.784  1.00 24.46     0.281 C 
HETATM   13  O8    D T 510     -20.362 -11.788 -32.898  1.00 47.57    -0.265 OA
BRANCH  12  14
HETATM   14  C7    D T 510     -19.869 -10.753 -30.866  1.00 27.20     0.058 A 
HETATM   15  C9    D T 510     -18.493 -10.984 -30.888  1.00 26.30     0.006 A 
HETATM   16  C10   D T 510     -17.632 -10.315 -30.036  1.00 29.02     0.017 A 
HETATM   17  C24   D T 510     -18.109  -9.370 -29.102  1.00 25.79     0.056 A 
HETATM   18  C11   D T 510     -19.500  -9.152 -29.086  1.00 33.12     0.017 A 
HETATM   19  C12   D T 510     -20.344  -9.827 -29.939  1.00 29.35     0.006 A 
BRANCH  17  20
HETATM   20  N17   D T 510     -17.284  -8.690 -28.237  1.00 32.10    -0.344 N 
HETATM   21  C18   D T 510     -17.865  -7.717 -27.318  1.00 33.06     0.137 C 
HETATM   22  C19   D T 510     -16.978  -7.512 -26.096  1.00 45.16     0.274 C 
HETATM   23  N20   D T 510     -15.594  -7.220 -26.403  1.00 53.73     0.143 N 
HETATM   24  C21   D T 510     -15.068  -8.280 -27.240  1.00 50.63     0.274 C 
HETATM   25  C23   D T 510     -14.788  -6.940 -25.232  1.00 47.36     0.286 C 
HETATM   26  C22   D T 510     -15.861  -8.554 -28.515  1.00 35.17     0.137 C 
ENDBRANCH  17  20
ENDBRANCH  12  14
ENDBRANCH   3  11
BRANCH   9  27
HETATM   27  C20   D T 510     -22.509 -17.950 -31.043  1.00 31.66     0.216 C 
BRANCH  27  28
HETATM   28  C27   D T 510     -23.162 -18.542 -29.808  1.00 37.14     0.014 A 
HETATM   29  C28   D T 510     -22.912 -19.853 -29.419  1.00 32.75    -0.001 A 
HETATM   30  C31   D T 510     -23.511 -20.378 -28.280  1.00 32.33    -0.000 A 
HETATM   31  C35   D T 510     -24.360 -19.589 -27.518  1.00 38.48    -0.000 A 
HETATM   32  C33   D T 510     -24.612 -18.276 -27.899  1.00 37.62    -0.000 A 
HETATM   33  C29   D T 510     -24.014 -17.754 -29.036  1.00 37.41    -0.001 A 
ENDBRANCH  27  28
BRANCH  27  34
HETATM   34  O34   D T 510     -21.782 -18.892 -31.775  1.00 47.15    -0.340 OA
HETATM   35  C36   D T 510     -20.451 -18.503 -32.032  1.00 30.29     0.175 C 
ENDBRANCH  27  34
ENDBRANCH   9  27
TORSDOF 6
ENDMDL
MODEL 7
REMARK VINA RESULT:    -6.107      8.484     13.439
REMARK INTER + INTRA:          -9.409
REMARK INTER:                  -8.747
REMARK INTRA:                  -0.662
REMARK UNBOUND:                -1.160
REMARK  6 active torsions:
REMARK  status: ('A' for Active; 'I' for Inactive)
REMARK       I    between atoms: N1_1  and  C25_25 
REMARK    1  A    between atoms: C3_3  and  N5_5 
REMARK       I    between atoms: N5_5  and  C6_6 
REMARK    2  A    between atoms: C6_6  and  C7_7 
REMARK    3  A    between atoms: N17_17  and  C24_24 
REMARK    4  A    between atoms: C25_25  and  C20_32 
REMARK    5  A    between atoms: C27_27  and  C20_32 
REMARK    6  A    between atoms: C20_32  and  O34_35 
ROOT
HETATM    1  N1    D T 510     -29.776 -19.936 -33.852  1.00 27.33    -0.308 N 
HETATM    2  N2    D T 510     -27.542 -21.879 -31.816  1.00 25.81    -0.149 NA
HETATM    3  C3    D T 510     -26.576 -19.991 -31.986  1.00 28.92     0.186 A 
HETATM    4  N4    D T 510     -26.439 -21.200 -31.463  1.00 26.85    -0.129 NA
HETATM    5  C13   D T 510     -28.369 -21.128 -32.543  1.00 21.37     0.104 A 
HETATM    6  C14   D T 510     -27.801 -19.901 -32.683  1.00 21.42     0.055 A 
HETATM    7  C15   D T 510     -28.680 -19.013 -33.491  1.00 23.53     0.136 A 
HETATM    8  C16   D T 510     -29.689 -21.254 -33.208  1.00 21.29     0.152 A 
HETATM    9  C25   D T 510     -30.742 -19.546 -34.705  1.00 31.44     0.266 C 
HETATM   10  O26   D T 510     -31.655 -20.292 -35.019  1.00 37.82    -0.269 OA
ENDROOT
BRANCH   3  11
HETATM   11  N5    D T 510     -25.631 -18.979 -31.833  1.00 21.79    -0.187 NA
HETATM   12  C6    D T 510     -25.202 -18.392 -30.677  1.00 24.46     0.281 C 
HETATM   13  O8    D T 510     -25.622 -18.707 -29.578  1.00 47.57    -0.265 OA
BRANCH  12  14
HETATM   14  C7    D T 510     -24.159 -17.343 -30.781  1.00 27.20     0.058 A 
HETATM   15  C9    D T 510     -23.409 -16.992 -29.658  1.00 26.30     0.006 A 
HETATM   16  C10   D T 510     -22.438 -16.008 -29.714  1.00 29.02     0.017 A 
HETATM   17  C24   D T 510     -22.165 -15.311 -30.911  1.00 25.79     0.056 A 
HETATM   18  C11   D T 510     -22.935 -15.672 -32.034  1.00 33.12     0.017 A 
HETATM   19  C12   D T 510     -23.899 -16.652 -31.962  1.00 29.35     0.006 A 
BRANCH  17  20
HETATM   20  N17   D T 510     -21.212 -14.325 -31.003  1.00 32.10    -0.344 N 
HETATM   21  C18   D T 510     -20.337 -14.288 -32.170  1.00 33.06     0.137 C 
HETATM   22  C19   D T 510     -19.788 -12.887 -32.405  1.00 45.16     0.274 C 
HETATM   23  N20   D T 510     -19.177 -12.279 -31.242  1.00 53.73     0.143 N 
HETATM   24  C21   D T 510     -20.141 -12.271 -30.160  1.00 50.63     0.274 C 
HETATM   25  C23   D T 510     -18.582 -10.985 -31.509  1.00 47.36     0.286 C 
HETATM   26  C22   D T 510     -20.737 -13.633 -29.812  1.00 35.17     0.137 C 
ENDBRANCH  17  20
ENDBRANCH  12  14
ENDBRANCH   3  11
BRANCH   9  27
HETATM   27  C20   D T 510     -30.660 -18.134 -35.291  1.00 31.66     0.216 C 
BRANCH  27  28
HETATM   28  C27   D T 510     -30.416 -18.265 -36.783  1.00 37.14     0.014 A 
HETATM   29  C28   D T 510     -30.645 -17.200 -37.647  1.00 32.75    -0.001 A 
HETATM   30  C31   D T 510     -30.408 -17.333 -39.010  1.00 32.33    -0.000 A 
HETATM   31  C35   D T 510     -29.933 -18.534 -39.516  1.00 38.48    -0.000 A 
HETATM   32  C33   D T 510     -29.698 -19.602 -38.657  1.00 37.62    -0.000 A 
HETATM   33  C29   D T 510     -29.936 -19.468 -37.299  1.00 37.41    -0.001 A 
ENDBRANCH  27  28
BRANCH  27  34
HETATM   34  O34   D T 510     -31.873 -17.507 -34.995  1.00 47.15    -0.340 OA
HETATM   35  C36   D T 510     -31.992 -17.117 -33.645  1.00 30.29     0.175 C 
ENDBRANCH  27  34
ENDBRANCH   9  27
TORSDOF 6
ENDMDL
MODEL 8
REMARK VINA RESULT:    -6.084      9.977     12.269
REMARK INTER + INTRA:          -9.378
REMARK INTER:                  -8.414
REMARK INTRA:                  -0.964
REMARK UNBOUND:                -1.160
REMARK  6 active torsions:
REMARK  status: ('A' for Active; 'I' for Inactive)
REMARK       I    between atoms: N1_1  and  C25_25 
REMARK    1  A    between atoms: C3_3  and  N5_5 
REMARK       I    between atoms: N5_5  and  C6_6 
REMARK    2  A    between atoms: C6_6  and  C7_7 
REMARK    3  A    between atoms: N17_17  and  C24_24 
REMARK    4  A    between atoms: C25_25  and  C20_32 
REMARK    5  A    between atoms: C27_27  and  C20_32 
REMARK    6  A    between atoms: C20_32  and  O34_35 
ROOT
HETATM    1  N1    D T 510     -24.791 -18.706 -32.717  1.00 27.33    -0.308 N 
HETATM    2  N2    D T 510     -26.022 -17.189 -35.732  1.00 25.81    -0.149 NA
HETATM    3  C3    D T 510     -23.933 -16.789 -35.768  1.00 28.92     0.186 A 
HETATM    4  N4    D T 510     -25.055 -16.584 -36.440  1.00 26.85    -0.129 NA
HETATM    5  C13   D T 510     -25.536 -17.771 -34.636  1.00 21.37     0.104 A 
HETATM    6  C14   D T 510     -24.195 -17.549 -34.606  1.00 21.42     0.055 A 
HETATM    7  C15   D T 510     -23.593 -18.176 -33.399  1.00 23.53     0.136 A 
HETATM    8  C16   D T 510     -26.034 -18.569 -33.488  1.00 21.29     0.152 A 
HETATM    9  C25   D T 510     -24.690 -19.255 -31.490  1.00 31.44     0.266 C 
HETATM   10  O26   D T 510     -25.666 -19.697 -30.907  1.00 37.82    -0.269 OA
ENDROOT
BRANCH   3  11
HETATM   11  N5    D T 510     -22.691 -16.318 -36.189  1.00 21.79    -0.187 NA
HETATM   12  C6    D T 510     -21.831 -15.494 -35.521  1.00 24.46     0.281 C 
HETATM   13  O8    D T 510     -22.064 -15.051 -34.411  1.00 47.57    -0.265 OA
BRANCH  12  14
HETATM   14  C7    D T 510     -20.547 -15.155 -36.182  1.00 27.20     0.058 A 
HETATM   15  C9    D T 510     -20.451 -15.180 -37.574  1.00 26.30     0.006 A 
HETATM   16  C10   D T 510     -19.267 -14.883 -38.224  1.00 29.02     0.017 A 
HETATM   17  C24   D T 510     -18.099 -14.544 -37.506  1.00 25.79     0.056 A 
HETATM   18  C11   D T 510     -18.209 -14.530 -36.102  1.00 33.12     0.017 A 
HETATM   19  C12   D T 510     -19.395 -14.830 -35.470  1.00 29.35     0.006 A 
BRANCH  17  20
HETATM   20  N17   D T 510     -16.904 -14.248 -38.118  1.00 32.10    -0.344 N 
HETATM   21  C18   D T 510     -15.687 -14.198 -37.315  1.00 33.06     0.137 C 
HETATM   22  C19   D T 510     -14.450 -14.446 -38.168  1.00 45.16     0.274 C 
HETATM   23  N20   D T 510     -14.361 -13.616 -39.350  1.00 53.73     0.143 N 
HETATM   24  C21   D T 510     -15.565 -13.795 -40.138  1.00 50.63     0.274 C 
HETATM   25  C23   D T 510     -13.135 -13.803 -40.100  1.00 47.36     0.286 C 
HETATM   26  C22   D T 510     -16.872 -13.540 -39.391  1.00 35.17     0.137 C 
ENDBRANCH  17  20
ENDBRANCH  12  14
ENDBRANCH   3  11
BRANCH   9  27
HETATM   27  C20   D T 510     -23.309 -19.299 -30.832  1.00 31.66     0.216 C 
BRANCH  27  28
HETATM   28  C27   D T 510     -23.189 -18.088 -29.925  1.00 37.14     0.014 A 
HETATM   29  C28   D T 510     -23.941 -17.983 -28.760  1.00 32.75    -0.001 A 
HETATM   30  C31   D T 510     -23.814 -16.871 -27.936  1.00 32.33    -0.000 A 
HETATM   31  C35   D T 510     -22.928 -15.859 -28.271  1.00 38.48    -0.000 A 
HETATM   32  C33   D T 510     -22.170 -15.958 -29.433  1.00 37.62    -0.000 A 
HETATM   33  C29   D T 510     -22.299 -17.067 -30.254  1.00 37.41    -0.001 A 
ENDBRANCH  27  28
BRANCH  27  34
HETATM   34  O34   D T 510     -23.238 -20.507 -30.133  1.00 47.15    -0.340 OA
HETATM   35  C36   D T 510     -21.921 -20.904 -29.824  1.00 30.29     0.175 C 
ENDBRANCH  27  34
ENDBRANCH   9  27
TORSDOF 6
ENDMDL
MODEL 9
REMARK VINA RESULT:    -5.910      5.235     10.194
REMARK INTER + INTRA:          -9.143
REMARK INTER:                  -8.219
REMARK INTRA:                  -0.924
REMARK UNBOUND:                -1.160
REMARK  6 active torsions:
REMARK  status: ('A' for Active; 'I' for Inactive)
REMARK       I    between atoms: N1_1  and  C25_25 
REMARK    1  A    between atoms: C3_3  and  N5_5 
REMARK       I    between atoms: N5_5  and  C6_6 
REMARK    2  A    between atoms: C6_6  and  C7_7 
REMARK    3  A    between atoms: N17_17  and  C24_24 
REMARK    4  A    between atoms: C25_25  and  C20_32 
REMARK    5  A    between atoms: C27_27  and  C20_32 
REMARK    6  A    between atoms: C20_32  and  O34_35 
ROOT
HETATM    1  N1    D T 510     -16.041  -9.844 -31.105  1.00 27.33    -0.308 N 
HETATM    2  N2    D T 510     -19.006  -8.811 -29.358  1.00 25.81    -0.149 NA
HETATM    3  C3    D T 510     -19.296 -10.893 -29.681  1.00 28.92     0.186 A 
HETATM    4  N4    D T 510     -19.871  -9.819 -29.164  1.00 26.85    -0.129 NA
HETATM    5  C13   D T 510     -17.902  -9.225 -29.978  1.00 21.37     0.104 A 
HETATM    6  C14   D T 510     -18.030 -10.558 -30.210  1.00 21.42     0.055 A 
HETATM    7  C15   D T 510     -16.823 -11.081 -30.906  1.00 23.53     0.136 A 
HETATM    8  C16   D T 510     -16.618  -8.656 -30.460  1.00 21.29     0.152 A 
HETATM    9  C25   D T 510     -14.905  -9.864 -31.827  1.00 31.44     0.266 C 
HETATM   10  O26   D T 510     -14.243  -8.855 -32.007  1.00 37.82    -0.269 OA
ENDROOT
BRANCH   3  11
HETATM   11  N5    D T 510     -19.883 -12.157 -29.670  1.00 21.79    -0.187 NA
HETATM   12  C6    D T 510     -20.305 -12.900 -30.735  1.00 24.46     0.281 C 
HETATM   13  O8    D T 510     -20.209 -12.522 -31.887  1.00 47.57    -0.265 OA
BRANCH  12  14
HETATM   14  C7    D T 510     -20.881 -14.238 -30.457  1.00 27.20     0.058 A 
HETATM   15  C9    D T 510     -20.569 -15.318 -31.285  1.00 26.30     0.006 A 
HETATM   16  C10   D T 510     -21.099 -16.576 -31.065  1.00 29.02     0.017 A 
HETATM   17  C24   D T 510     -21.985 -16.825 -29.993  1.00 25.79     0.056 A 
HETATM   18  C11   D T 510     -22.296 -15.725 -29.171  1.00 33.12     0.017 A 
HETATM   19  C12   D T 510     -21.762 -14.477 -29.404  1.00 29.35     0.006 A 
BRANCH  17  20
HETATM   20  N17   D T 510     -22.534 -18.061 -29.748  1.00 32.10    -0.344 N 
HETATM   21  C18   D T 510     -21.847 -19.254 -30.231  1.00 33.06     0.137 C 
HETATM   22  C19   D T 510     -22.228 -20.481 -29.413  1.00 45.16     0.274 C 
HETATM   23  N20   D T 510     -23.653 -20.688 -29.272  1.00 53.73     0.143 N 
HETATM   24  C21   D T 510     -24.244 -19.495 -28.701  1.00 50.63     0.274 C 
HETATM   25  C23   D T 510     -23.994 -21.908 -28.568  1.00 47.36     0.286 C 
HETATM   26  C22   D T 510     -23.956 -18.201 -29.459  1.00 35.17     0.137 C 
ENDBRANCH  17  20
ENDBRANCH  12  14
ENDBRANCH   3  11
BRANCH   9  27
HETATM   27  C20   D T 510     -14.463 -11.197 -32.438  1.00 31.66     0.216 C 
BRANCH  27  28
HETATM   28  C27   D T 510     -14.999 -11.256 -33.857  1.00 37.14     0.014 A 
HETATM   29  C28   D T 510     -14.613 -10.322 -34.812  1.00 32.75    -0.001 A 
HETATM   30  C31   D T 510     -15.106 -10.395 -36.110  1.00 32.33    -0.000 A 
HETATM   31  C35   D T 510     -15.985 -11.409 -36.460  1.00 38.48    -0.000 A 
HETATM   32  C33   D T 510     -16.373 -12.348 -35.511  1.00 37.62    -0.000 A 
HETATM   33  C29   D T 510     -15.881 -12.274 -34.218  1.00 37.41    -0.001 A 
ENDBRANCH  27  28
BRANCH  27  34
HETATM   34  O34   D T 510     -13.067 -11.217 -32.387  1.00 47.15    -0.340 OA
HETATM   35  C36   D T 510     -12.504 -12.446 -32.787  1.00 30.29     0.175 C 
ENDBRANCH  27  34
ENDBRANCH   9  27
TORSDOF 6
ENDMDL
