MODEL 1
REMARK VINA RESULT:    -8.819      0.000      0.000
REMARK INTER + INTRA:         -13.194
REMARK INTER:                 -12.427
REMARK INTRA:                  -0.767
REMARK UNBOUND:                -0.767
REMARK  7 active torsions:
REMARK  status: ('A' for Active; 'I' for Inactive)
REMARK    1  A    between atoms: C13_1  and  C25_22 
REMARK    2  A    between atoms: C17_3  and  C14_7 
REMARK    3  A    between atoms: C17_3  and  N18_34 
REMARK    4  A    between atoms: C11_5  and  N10_10 
REMARK       I    between atoms: N10_10  and  C08_18 
REMARK    5  A    between atoms: C03_13  and  C29_23 
REMARK    6  A    between atoms: C05_15  and  C08_18 
REMARK    7  A    between atoms: C30_24  and  C31_25 
ROOT
HETATM    1  N10   D T2601     133.982 125.367 142.539  1.00 11.81    -0.208 NA
HETATM    2  C08   D T2601     134.774 124.633 143.528  1.00  5.67     0.279 C 
HETATM    3  O09   D T2601     134.390 124.401 144.596  1.00  9.79    -0.265 OA
ENDROOT
BRANCH   2   4
HETATM    4  C05   D T2601     136.164 124.076 143.247  1.00  3.60     0.059 A 
HETATM    5  C04   D T2601     136.941 124.791 142.377  1.00  5.11     0.013 A 
HETATM    6  C03   D T2601     138.199 124.338 142.108  1.00  7.74     0.038 A 
HETATM    7  C02   D T2601     138.694 123.199 142.683  1.00  9.17    -0.014 A 
HETATM    8  C01   D T2601     140.093 122.734 142.347  1.00 11.30     0.032 C 
HETATM    9  C07   D T2601     137.914 122.490 143.560  1.00 16.89    -0.004 A 
HETATM   10  C06   D T2601     136.637 122.935 143.849  1.00 11.92     0.004 A 
BRANCH   6  11
HETATM   11  C29   D T2601     139.077 125.101 141.147  1.00  7.67    -0.060 C 
HETATM   12  C30   D T2601     139.749 125.704 140.393  1.00  4.53    -0.058 C 
BRANCH  12  13
HETATM   13  C31   D T2601     140.608 126.499 139.433  1.00  1.76     0.061 A 
HETATM   14  C32   D T2601     140.945 127.801 139.663  1.00  3.61     0.015 A 
HETATM   15  C33   D T2601     141.697 128.376 138.741  1.00  5.57     0.059 A 
HETATM   16  C34   D T2601     142.132 127.703 137.594  1.00  6.17     0.185 A 
HETATM   17  C37   D T2601     142.310 129.643 138.485  1.00  9.96     0.125 A 
HETATM   18  N35   D T2601     142.880 128.724 136.962  1.00  3.26    -0.129 NA
HETATM   19  N38   D T2601     141.821 126.459 137.344  1.00 12.99    -0.223 NA
HETATM   20  N36   D T2601     143.010 129.906 137.476  1.00  6.50    -0.145 NA
HETATM   21  C39   D T2601     141.048 125.828 138.270  1.00  5.57     0.109 A 
ENDBRANCH  12  13
ENDBRANCH   6  11
ENDBRANCH   2   4
BRANCH   1  22
HETATM   22  C11   D T2601     132.623 125.887 142.840  1.00 11.94     0.085 A 
HETATM   23  C12   D T2601     132.462 127.157 143.339  1.00  8.64     0.023 A 
HETATM   24  C13   D T2601     131.217 127.691 143.649  1.00  5.16     0.074 A 
HETATM   25  C14   D T2601     130.045 126.922 143.441  1.00  9.71     0.016 A 
HETATM   26  C15   D T2601     130.223 125.645 142.903  1.00  7.63     0.003 A 
HETATM   27  C16   D T2601     131.493 125.127 142.621  1.00  5.68     0.019 A 
BRANCH  24  28
HETATM   28  C25   D T2601     131.180 129.097 144.204  1.00  8.83     0.419 C 
HETATM   29  F26   D T2601     130.747 129.089 145.481  1.00 15.45    -0.166 F 
HETATM   30  F27   D T2601     132.419 129.609 144.178  1.00  6.64    -0.166 F 
HETATM   31  F28   D T2601     130.389 129.841 143.412  1.00 29.12    -0.166 F 
ENDBRANCH  24  28
BRANCH  25  32
HETATM   32  C17   D T2601     128.626 127.543 143.748  1.00 12.70     0.051 C 
BRANCH  32  33
HETATM   33  N18   D T2601     127.969 127.235 144.877  1.00 13.52    -0.228 NA
HETATM   34  C19   D T2601     128.676 126.412 145.595  1.00 14.71     0.099 C 
HETATM   35  C20   D T2601     128.051 126.039 146.949  1.00  4.84     0.095 C 
HETATM   36  N21   D T2601     127.716 127.130 147.590  1.00  2.05    -0.248 NA
HETATM   37  C22   D T2601     126.870 127.712 146.811  1.00  7.08     0.060 C 
HETATM   38  C24   D T2601     127.116 126.837 148.701  1.00  7.31     0.094 C 
HETATM   39  C23   D T2601     127.584 128.229 145.580  1.00 11.65     0.063 C 
ENDBRANCH  32  33
ENDBRANCH  25  32
ENDBRANCH   1  22
TORSDOF 7
ENDMDL
MODEL 2
REMARK VINA RESULT:    -8.655      7.141      9.707
REMARK INTER + INTRA:         -12.964
REMARK INTER:                 -12.307
REMARK INTRA:                  -0.657
REMARK UNBOUND:                -0.767
REMARK  7 active torsions:
REMARK  status: ('A' for Active; 'I' for Inactive)
REMARK    1  A    between atoms: C13_1  and  C25_22 
REMARK    2  A    between atoms: C17_3  and  C14_7 
REMARK    3  A    between atoms: C17_3  and  N18_34 
REMARK    4  A    between atoms: C11_5  and  N10_10 
REMARK       I    between atoms: N10_10  and  C08_18 
REMARK    5  A    between atoms: C03_13  and  C29_23 
REMARK    6  A    between atoms: C05_15  and  C08_18 
REMARK    7  A    between atoms: C30_24  and  C31_25 
ROOT
HETATM    1  N10   D T2601     134.658 126.917 138.768  1.00 11.81    -0.208 NA
HETATM    2  C08   D T2601     134.473 126.840 137.316  1.00  5.67     0.279 C 
HETATM    3  O09   D T2601     134.893 125.974 136.673  1.00  9.79    -0.265 OA
ENDROOT
BRANCH   2   4
HETATM    4  C05   D T2601     133.689 127.870 136.514  1.00  3.60     0.059 A 
HETATM    5  C04   D T2601     134.408 128.628 135.630  1.00  5.11     0.013 A 
HETATM    6  C03   D T2601     133.744 129.552 134.877  1.00  7.74     0.038 A 
HETATM    7  C02   D T2601     132.391 129.734 134.987  1.00  9.17    -0.014 A 
HETATM    8  C01   D T2601     131.703 130.777 134.135  1.00 11.30     0.032 C 
HETATM    9  C07   D T2601     131.674 128.967 135.869  1.00 16.89    -0.004 A 
HETATM   10  C06   D T2601     132.329 128.022 136.637  1.00 11.92     0.004 A 
BRANCH   6  11
HETATM   11  C29   D T2601     134.511 130.408 133.899  1.00  7.67    -0.060 C 
HETATM   12  C30   D T2601     135.095 131.078 133.129  1.00  4.53    -0.058 C 
BRANCH  12  13
HETATM   13  C31   D T2601     135.835 131.958 132.145  1.00  1.76     0.061 A 
HETATM   14  C32   D T2601     136.033 131.592 130.845  1.00  3.61     0.015 A 
HETATM   15  C33   D T2601     136.699 132.454 130.096  1.00  5.57     0.059 A 
HETATM   16  C34   D T2601     137.177 133.672 130.591  1.00  6.17     0.185 A 
HETATM   17  C37   D T2601     137.161 132.580 128.748  1.00  9.96     0.125 A 
HETATM   18  N35   D T2601     137.788 134.201 129.430  1.00  3.26    -0.129 NA
HETATM   19  N38   D T2601     137.008 134.047 131.832  1.00 12.99    -0.223 NA
HETATM   20  N36   D T2601     137.794 133.568 128.300  1.00  6.50    -0.145 NA
HETATM   21  C39   D T2601     136.325 133.189 132.638  1.00  5.57     0.109 A 
ENDBRANCH  12  13
ENDBRANCH   6  11
ENDBRANCH   2   4
BRANCH   1  22
HETATM   22  C11   D T2601     135.418 125.888 139.525  1.00 11.94     0.085 A 
HETATM   23  C12   D T2601     136.717 126.128 139.904  1.00  8.64     0.023 A 
HETATM   24  C13   D T2601     137.478 125.199 140.603  1.00  5.16     0.074 A 
HETATM   25  C14   D T2601     136.917 123.949 140.964  1.00  9.71     0.016 A 
HETATM   26  C15   D T2601     135.585 123.735 140.599  1.00  7.63     0.003 A 
HETATM   27  C16   D T2601     134.850 124.682 139.876  1.00  5.68     0.019 A 
BRANCH  24  28
HETATM   28  C25   D T2601     138.900 125.581 140.949  1.00  8.83     0.419 C 
HETATM   29  F26   D T2601     139.773 124.753 140.340  1.00 15.45    -0.166 F 
HETATM   30  F27   D T2601     139.131 126.831 140.522  1.00  6.64    -0.166 F 
HETATM   31  F28   D T2601     139.030 125.550 142.287  1.00 29.12    -0.166 F 
ENDBRANCH  24  28
BRANCH  25  32
HETATM   32  C17   D T2601     137.764 122.911 141.799  1.00 12.70     0.051 C 
BRANCH  32  33
HETATM   33  N18   D T2601     137.396 122.563 143.042  1.00 13.52    -0.228 NA
HETATM   34  C19   D T2601     138.438 122.508 143.819  1.00 14.71     0.099 C 
HETATM   35  C20   D T2601     138.129 122.183 145.288  1.00  4.84     0.095 C 
HETATM   36  N21   D T2601     137.198 122.991 145.728  1.00  2.05    -0.248 NA
HETATM   37  C22   D T2601     136.188 122.765 144.960  1.00  7.08     0.060 C 
HETATM   38  C24   D T2601     136.867 122.685 146.943  1.00  7.31     0.094 C 
HETATM   39  C23   D T2601     136.481 123.283 143.568  1.00 11.65     0.063 C 
ENDBRANCH  32  33
ENDBRANCH  25  32
ENDBRANCH   1  22
TORSDOF 7
ENDMDL
MODEL 3
REMARK VINA RESULT:    -8.603      1.939      2.552
REMARK INTER + INTRA:         -12.891
REMARK INTER:                 -11.967
REMARK INTRA:                  -0.924
REMARK UNBOUND:                -0.767
REMARK  7 active torsions:
REMARK  status: ('A' for Active; 'I' for Inactive)
REMARK    1  A    between atoms: C13_1  and  C25_22 
REMARK    2  A    between atoms: C17_3  and  C14_7 
REMARK    3  A    between atoms: C17_3  and  N18_34 
REMARK    4  A    between atoms: C11_5  and  N10_10 
REMARK       I    between atoms: N10_10  and  C08_18 
REMARK    5  A    between atoms: C03_13  and  C29_23 
REMARK    6  A    between atoms: C05_15  and  C08_18 
REMARK    7  A    between atoms: C30_24  and  C31_25 
ROOT
HETATM    1  N10   D T2601     134.096 125.669 142.547  1.00 11.81    -0.208 NA
HETATM    2  C08   D T2601     134.854 124.799 143.449  1.00  5.67     0.279 C 
HETATM    3  O09   D T2601     134.463 124.477 144.491  1.00  9.79    -0.265 OA
ENDROOT
BRANCH   2   4
HETATM    4  C05   D T2601     136.213 124.205 143.100  1.00  3.60     0.059 A 
HETATM    5  C04   D T2601     136.953 124.886 142.172  1.00  5.11     0.013 A 
HETATM    6  C03   D T2601     138.184 124.399 141.840  1.00  7.74     0.038 A 
HETATM    7  C02   D T2601     138.686 123.260 142.409  1.00  9.17    -0.014 A 
HETATM    8  C01   D T2601     140.053 122.757 142.002  1.00 11.30     0.032 C 
HETATM    9  C07   D T2601     137.943 122.585 143.343  1.00 16.89    -0.004 A 
HETATM   10  C06   D T2601     136.695 123.065 143.696  1.00 11.92     0.004 A 
BRANCH   6  11
HETATM   11  C29   D T2601     139.021 125.125 140.815  1.00  7.67    -0.060 C 
HETATM   12  C30   D T2601     139.679 125.676 140.013  1.00  4.53    -0.058 C 
BRANCH  12  13
HETATM   13  C31   D T2601     140.517 126.375 138.963  1.00  1.76     0.061 A 
HETATM   14  C32   D T2601     140.634 127.733 138.909  1.00  3.61     0.015 A 
HETATM   15  C33   D T2601     141.393 128.211 137.938  1.00  5.57     0.059 A 
HETATM   16  C34   D T2601     142.047 127.387 137.016  1.00  6.17     0.185 A 
HETATM   17  C37   D T2601     141.842 129.476 137.444  1.00  9.96     0.125 A 
HETATM   18  N35   D T2601     142.706 128.356 136.224  1.00  3.26    -0.129 NA
HETATM   19  N38   D T2601     141.949 126.084 137.038  1.00 12.99    -0.223 NA
HETATM   20  N36   D T2601     142.605 129.627 136.457  1.00  6.50    -0.145 NA
HETATM   21  C39   D T2601     141.177 125.550 138.024  1.00  5.57     0.109 A 
ENDBRANCH  12  13
ENDBRANCH   6  11
ENDBRANCH   2   4
BRANCH   1  22
HETATM   22  C11   D T2601     132.766 126.223 142.913  1.00 11.94     0.085 A 
HETATM   23  C12   D T2601     131.633 125.459 142.761  1.00  8.64     0.023 A 
HETATM   24  C13   D T2601     130.364 125.929 143.076  1.00  5.16     0.074 A 
HETATM   25  C14   D T2601     130.200 127.240 143.588  1.00  9.71     0.016 A 
HETATM   26  C15   D T2601     131.364 127.991 143.766  1.00  7.63     0.003 A 
HETATM   27  C16   D T2601     132.628 127.498 143.420  1.00  5.68     0.019 A 
BRANCH  24  28
HETATM   28  C25   D T2601     129.199 124.992 142.849  1.00  8.83     0.419 C 
HETATM   29  F26   D T2601     128.297 125.553 142.017  1.00 15.45    -0.166 F 
HETATM   30  F27   D T2601     129.651 123.862 142.288  1.00  6.64    -0.166 F 
HETATM   31  F28   D T2601     128.660 124.695 144.045  1.00 29.12    -0.166 F 
ENDBRANCH  24  28
BRANCH  25  32
HETATM   32  C17   D T2601     128.763 127.759 143.991  1.00 12.70     0.051 C 
BRANCH  32  33
HETATM   33  N18   D T2601     128.616 128.840 144.772  1.00 13.52    -0.228 NA
HETATM   34  C19   D T2601     128.000 129.782 144.121  1.00 14.71     0.099 C 
HETATM   35  C20   D T2601     127.714 131.050 144.940  1.00  4.84     0.095 C 
HETATM   36  N21   D T2601     127.122 130.723 146.060  1.00  2.05    -0.248 NA
HETATM   37  C22   D T2601     127.962 129.944 146.651  1.00  7.08     0.060 C 
HETATM   38  C24   D T2601     126.941 131.770 146.802  1.00  7.31     0.094 C 
HETATM   39  C23   D T2601     128.056 128.632 145.901  1.00 11.65     0.063 C 
ENDBRANCH  32  33
ENDBRANCH  25  32
ENDBRANCH   1  22
TORSDOF 7
ENDMDL
MODEL 4
REMARK VINA RESULT:    -8.517      1.940      2.437
REMARK INTER + INTRA:         -12.770
REMARK INTER:                 -12.410
REMARK INTRA:                  -0.360
REMARK UNBOUND:                -0.767
REMARK  7 active torsions:
REMARK  status: ('A' for Active; 'I' for Inactive)
REMARK    1  A    between atoms: C13_1  and  C25_22 
REMARK    2  A    between atoms: C17_3  and  C14_7 
REMARK    3  A    between atoms: C17_3  and  N18_34 
REMARK    4  A    between atoms: C11_5  and  N10_10 
REMARK       I    between atoms: N10_10  and  C08_18 
REMARK    5  A    between atoms: C03_13  and  C29_23 
REMARK    6  A    between atoms: C05_15  and  C08_18 
REMARK    7  A    between atoms: C30_24  and  C31_25 
ROOT
HETATM    1  N10   D T2601     134.651 124.599 142.002  1.00 11.81    -0.208 NA
HETATM    2  C08   D T2601     135.450 123.770 142.908  1.00  5.67     0.279 C 
HETATM    3  O09   D T2601     134.990 123.176 143.789  1.00  9.79    -0.265 OA
ENDROOT
BRANCH   2   4
HETATM    4  C05   D T2601     136.955 123.582 142.767  1.00  3.60     0.059 A 
HETATM    5  C04   D T2601     137.578 124.350 141.821  1.00  5.11     0.013 A 
HETATM    6  C03   D T2601     138.929 124.226 141.672  1.00  7.74     0.038 A 
HETATM    7  C02   D T2601     139.663 123.361 142.438  1.00  9.17    -0.014 A 
HETATM    8  C01   D T2601     141.157 123.255 142.228  1.00 11.30     0.032 C 
HETATM    9  C07   D T2601     139.035 122.599 143.389  1.00 16.89    -0.004 A 
HETATM   10  C06   D T2601     137.667 122.714 143.559  1.00 11.92     0.004 A 
BRANCH   6  11
HETATM   11  C29   D T2601     139.643 125.055 140.632  1.00  7.67    -0.060 C 
HETATM   12  C30   D T2601     140.199 125.688 139.813  1.00  4.53    -0.058 C 
BRANCH  12  13
HETATM   13  C31   D T2601     140.896 126.503 138.745  1.00  1.76     0.061 A 
HETATM   14  C32   D T2601     140.938 127.867 138.779  1.00  3.61     0.015 A 
HETATM   15  C33   D T2601     141.577 128.451 137.780  1.00  5.57     0.059 A 
HETATM   16  C34   D T2601     142.181 127.730 136.745  1.00  6.17     0.185 A 
HETATM   17  C37   D T2601     141.912 129.770 137.339  1.00  9.96     0.125 A 
HETATM   18  N35   D T2601     142.712 128.787 135.968  1.00  3.26    -0.129 NA
HETATM   19  N38   D T2601     142.152 126.425 136.682  1.00 12.99    -0.223 NA
HETATM   20  N36   D T2601     142.569 130.030 136.301  1.00  6.50    -0.145 NA
HETATM   21  C39   D T2601     141.505 125.782 137.693  1.00  5.57     0.109 A 
ENDBRANCH  12  13
ENDBRANCH   6  11
ENDBRANCH   2   4
BRANCH   1  22
HETATM   22  C11   D T2601     133.181 124.752 142.158  1.00 11.94     0.085 A 
HETATM   23  C12   D T2601     132.671 125.704 143.008  1.00  8.64     0.023 A 
HETATM   24  C13   D T2601     131.307 125.884 143.201  1.00  5.16     0.074 A 
HETATM   25  C14   D T2601     130.378 125.077 142.499  1.00  9.71     0.016 A 
HETATM   26  C15   D T2601     130.913 124.137 141.615  1.00  7.63     0.003 A 
HETATM   27  C16   D T2601     132.293 123.963 141.457  1.00  5.68     0.019 A 
BRANCH  24  28
HETATM   28  C25   D T2601     130.877 126.959 144.176  1.00  8.83     0.419 C 
HETATM   29  F26   D T2601     131.825 127.913 144.274  1.00 15.45    -0.166 F 
HETATM   30  F27   D T2601     129.747 127.525 143.730  1.00  6.64    -0.166 F 
HETATM   31  F28   D T2601     130.630 126.375 145.362  1.00 29.12    -0.166 F 
ENDBRANCH  24  28
BRANCH  25  32
HETATM   32  C17   D T2601     128.827 125.312 142.681  1.00 12.70     0.051 C 
BRANCH  32  33
HETATM   33  N18   D T2601     128.080 124.452 143.390  1.00 13.52    -0.228 NA
HETATM   34  C19   D T2601     128.431 123.228 143.123  1.00 14.71     0.099 C 
HETATM   35  C20   D T2601     127.686 122.154 143.930  1.00  4.84     0.095 C 
HETATM   36  N21   D T2601     127.748 122.443 145.204  1.00  2.05    -0.248 NA
HETATM   37  C22   D T2601     127.183 123.598 145.299  1.00  7.08     0.060 C 
HETATM   38  C24   D T2601     127.060 121.592 145.898  1.00  7.31     0.094 C 
HETATM   39  C23   D T2601     128.060 124.649 144.652  1.00 11.65     0.063 C 
ENDBRANCH  32  33
ENDBRANCH  25  32
ENDBRANCH   1  22
TORSDOF 7
ENDMDL
MODEL 5
REMARK VINA RESULT:    -8.439      7.122      9.574
REMARK INTER + INTRA:         -12.660
REMARK INTER:                 -12.057
REMARK INTRA:                  -0.603
REMARK UNBOUND:                -0.767
REMARK  7 active torsions:
REMARK  status: ('A' for Active; 'I' for Inactive)
REMARK    1  A    between atoms: C13_1  and  C25_22 
REMARK    2  A    between atoms: C17_3  and  C14_7 
REMARK    3  A    between atoms: C17_3  and  N18_34 
REMARK    4  A    between atoms: C11_5  and  N10_10 
REMARK       I    between atoms: N10_10  and  C08_18 
REMARK    5  A    between atoms: C03_13  and  C29_23 
REMARK    6  A    between atoms: C05_15  and  C08_18 
REMARK    7  A    between atoms: C30_24  and  C31_25 
ROOT
HETATM    1  N10   D T2601     134.783 127.331 139.388  1.00 11.81    -0.208 NA
HETATM    2  C08   D T2601     134.866 127.576 137.946  1.00  5.67     0.279 C 
HETATM    3  O09   D T2601     135.386 126.847 137.212  1.00  9.79    -0.265 OA
ENDROOT
BRANCH   2   4
HETATM    4  C05   D T2601     134.255 128.793 137.264  1.00  3.60     0.059 A 
HETATM    5  C04   D T2601     134.781 129.137 136.048  1.00  5.11     0.013 A 
HETATM    6  C03   D T2601     134.253 130.211 135.393  1.00  7.74     0.038 A 
HETATM    7  C02   D T2601     133.222 130.942 135.919  1.00  9.17    -0.014 A 
HETATM    8  C01   D T2601     132.677 132.129 135.157  1.00 11.30     0.032 C 
HETATM    9  C07   D T2601     132.694 130.589 137.135  1.00 16.89    -0.004 A 
HETATM   10  C06   D T2601     133.212 129.501 137.812  1.00 11.92     0.004 A 
BRANCH   6  11
HETATM   11  C29   D T2601     134.816 130.618 134.053  1.00  7.67    -0.060 C 
HETATM   12  C30   D T2601     135.249 130.950 133.012  1.00  4.53    -0.058 C 
BRANCH  12  13
HETATM   13  C31   D T2601     135.819 131.392 131.681  1.00  1.76     0.061 A 
HETATM   14  C32   D T2601     136.442 132.596 131.519  1.00  3.61     0.015 A 
HETATM   15  C33   D T2601     136.889 132.856 130.302  1.00  5.57     0.059 A 
HETATM   16  C34   D T2601     136.744 131.962 129.237  1.00  6.17     0.185 A 
HETATM   17  C37   D T2601     137.579 133.899 129.608  1.00  9.96     0.125 A 
HETATM   18  N35   D T2601     137.375 132.689 128.200  1.00  3.26    -0.129 NA
HETATM   19  N38   D T2601     136.148 130.805 129.360  1.00 12.99    -0.223 NA
HETATM   20  N36   D T2601     137.892 133.861 128.391  1.00  6.50    -0.145 NA
HETATM   21  C39   D T2601     135.673 130.496 130.598  1.00  5.57     0.109 A 
ENDBRANCH  12  13
ENDBRANCH   6  11
ENDBRANCH   2   4
BRANCH   1  22
HETATM   22  C11   D T2601     135.379 126.126 140.022  1.00 11.94     0.085 A 
HETATM   23  C12   D T2601     136.711 126.109 140.360  1.00  8.64     0.023 A 
HETATM   24  C13   D T2601     137.323 125.007 140.944  1.00  5.16     0.074 A 
HETATM   25  C14   D T2601     136.567 123.842 141.227  1.00  9.71     0.016 A 
HETATM   26  C15   D T2601     135.207 123.888 140.907  1.00  7.63     0.003 A 
HETATM   27  C16   D T2601     134.623 125.006 140.298  1.00  5.68     0.019 A 
BRANCH  24  28
HETATM   28  C25   D T2601     138.799 125.113 141.254  1.00  8.83     0.419 C 
HETATM   29  F26   D T2601     139.313 126.242 140.725  1.00 15.45    -0.166 F 
HETATM   30  F27   D T2601     138.964 125.153 142.584  1.00  6.64    -0.166 F 
HETATM   31  F28   D T2601     139.409 124.014 140.776  1.00 29.12    -0.166 F 
ENDBRANCH  24  28
BRANCH  25  32
HETATM   32  C17   D T2601     137.250 122.606 141.934  1.00 12.70     0.051 C 
BRANCH  32  33
HETATM   33  N18   D T2601     137.008 122.332 143.225  1.00 13.52    -0.228 NA
HETATM   34  C19   D T2601     138.115 122.373 143.906  1.00 14.71     0.099 C 
HETATM   35  C20   D T2601     137.951 122.140 145.416  1.00  4.84     0.095 C 
HETATM   36  N21   D T2601     137.027 122.940 145.884  1.00  2.05    -0.248 NA
HETATM   37  C22   D T2601     135.965 122.620 145.227  1.00  7.08     0.060 C 
HETATM   38  C24   D T2601     136.817 122.707 147.141  1.00  7.31     0.094 C 
HETATM   39  C23   D T2601     136.111 123.050 143.782  1.00 11.65     0.063 C 
ENDBRANCH  32  33
ENDBRANCH  25  32
ENDBRANCH   1  22
TORSDOF 7
ENDMDL
MODEL 6
REMARK VINA RESULT:    -8.337      3.093     12.723
REMARK INTER + INTRA:         -12.515
REMARK INTER:                 -11.715
REMARK INTRA:                  -0.800
REMARK UNBOUND:                -0.767
REMARK  7 active torsions:
REMARK  status: ('A' for Active; 'I' for Inactive)
REMARK    1  A    between atoms: C13_1  and  C25_22 
REMARK    2  A    between atoms: C17_3  and  C14_7 
REMARK    3  A    between atoms: C17_3  and  N18_34 
REMARK    4  A    between atoms: C11_5  and  N10_10 
REMARK       I    between atoms: N10_10  and  C08_18 
REMARK    5  A    between atoms: C03_13  and  C29_23 
REMARK    6  A    between atoms: C05_15  and  C08_18 
REMARK    7  A    between atoms: C30_24  and  C31_25 
ROOT
HETATM    1  N10   D T2601     133.864 126.835 141.655  1.00 11.81    -0.208 NA
HETATM    2  C08   D T2601     133.785 128.103 142.385  1.00  5.67     0.279 C 
HETATM    3  O09   D T2601     134.719 128.725 142.670  1.00  9.79    -0.265 OA
ENDROOT
BRANCH   2   4
HETATM    4  C05   D T2601     132.472 128.746 142.813  1.00  3.60     0.059 A 
HETATM    5  C04   D T2601     131.792 128.123 143.824  1.00  5.11     0.013 A 
HETATM    6  C03   D T2601     130.618 128.673 144.251  1.00  7.74     0.038 A 
HETATM    7  C02   D T2601     130.115 129.819 143.696  1.00  9.17    -0.014 A 
HETATM    8  C01   D T2601     128.806 130.385 144.200  1.00 11.30     0.032 C 
HETATM    9  C07   D T2601     130.804 130.443 142.688  1.00 16.89    -0.004 A 
HETATM   10  C06   D T2601     131.998 129.903 142.245  1.00 11.92     0.004 A 
BRANCH   6  11
HETATM   11  C29   D T2601     129.842 128.006 145.360  1.00  7.67    -0.060 C 
HETATM   12  C30   D T2601     129.251 127.482 146.230  1.00  4.53    -0.058 C 
BRANCH  12  13
HETATM   13  C31   D T2601     128.500 126.819 147.365  1.00  1.76     0.061 A 
HETATM   14  C32   D T2601     128.878 125.615 147.884  1.00  3.61     0.015 A 
HETATM   15  C33   D T2601     128.130 125.149 148.870  1.00  5.57     0.059 A 
HETATM   16  C34   D T2601     127.018 125.838 149.364  1.00  6.17     0.185 A 
HETATM   17  C37   D T2601     128.071 124.010 149.733  1.00  9.96     0.125 A 
HETATM   18  N35   D T2601     126.590 124.948 150.377  1.00  3.26    -0.129 NA
HETATM   19  N38   D T2601     126.628 126.990 148.883  1.00 12.99    -0.223 NA
HETATM   20  N36   D T2601     127.205 123.836 150.627  1.00  6.50    -0.145 NA
HETATM   21  C39   D T2601     127.372 127.506 147.867  1.00  5.57     0.109 A 
ENDBRANCH  12  13
ENDBRANCH   6  11
ENDBRANCH   2   4
BRANCH   1  22
HETATM   22  C11   D T2601     135.161 126.239 141.240  1.00 11.94     0.085 A 
HETATM   23  C12   D T2601     135.785 125.313 142.040  1.00  8.64     0.023 A 
HETATM   24  C13   D T2601     137.003 124.733 141.707  1.00  5.16     0.074 A 
HETATM   25  C14   D T2601     137.647 125.081 140.494  1.00  9.71     0.016 A 
HETATM   26  C15   D T2601     136.983 126.000 139.677  1.00  7.63     0.003 A 
HETATM   27  C16   D T2601     135.767 126.584 140.050  1.00  5.68     0.019 A 
BRANCH  24  28
HETATM   28  C25   D T2601     137.590 123.736 142.682  1.00  8.83     0.419 C 
HETATM   29  F26   D T2601     137.679 122.516 142.115  1.00 15.45    -0.166 F 
HETATM   30  F27   D T2601     138.822 124.137 143.026  1.00  6.64    -0.166 F 
HETATM   31  F28   D T2601     136.818 123.721 143.784  1.00 29.12    -0.166 F 
ENDBRANCH  24  28
BRANCH  25  32
HETATM   32  C17   D T2601     139.008 124.388 140.092  1.00 12.70     0.051 C 
BRANCH  32  33
HETATM   33  N18   D T2601     140.128 125.110 139.937  1.00 13.52    -0.228 NA
HETATM   34  C19   D T2601     140.340 125.344 138.675  1.00 14.71     0.099 C 
HETATM   35  C20   D T2601     141.565 126.223 138.380  1.00  4.84     0.095 C 
HETATM   36  N21   D T2601     141.506 127.311 139.104  1.00  2.05    -0.248 NA
HETATM   37  C22   D T2601     141.499 126.885 140.321  1.00  7.08     0.060 C 
HETATM   38  C24   D T2601     142.569 128.032 138.928  1.00  7.31     0.094 C 
HETATM   39  C23   D T2601     140.183 126.194 140.610  1.00 11.65     0.063 C 
ENDBRANCH  32  33
ENDBRANCH  25  32
ENDBRANCH   1  22
TORSDOF 7
ENDMDL
MODEL 7
REMARK VINA RESULT:    -7.867      5.861     10.545
REMARK INTER + INTRA:         -11.853
REMARK INTER:                 -11.370
REMARK INTRA:                  -0.482
REMARK UNBOUND:                -0.767
REMARK  7 active torsions:
REMARK  status: ('A' for Active; 'I' for Inactive)
REMARK    1  A    between atoms: C13_1  and  C25_22 
REMARK    2  A    between atoms: C17_3  and  C14_7 
REMARK    3  A    between atoms: C17_3  and  N18_34 
REMARK    4  A    between atoms: C11_5  and  N10_10 
REMARK       I    between atoms: N10_10  and  C08_18 
REMARK    5  A    between atoms: C03_13  and  C29_23 
REMARK    6  A    between atoms: C05_15  and  C08_18 
REMARK    7  A    between atoms: C30_24  and  C31_25 
ROOT
HETATM    1  N10   D T2601     133.005 126.509 142.586  1.00 11.81    -0.208 NA
HETATM    2  C08   D T2601     133.325 127.929 142.750  1.00  5.67     0.279 C 
HETATM    3  O09   D T2601     134.410 128.329 142.801  1.00  9.79    -0.265 OA
ENDROOT
BRANCH   2   4
HETATM    4  C05   D T2601     132.268 129.023 142.841  1.00  3.60     0.059 A 
HETATM    5  C04   D T2601     132.368 130.041 141.932  1.00  5.11     0.013 A 
HETATM    6  C03   D T2601     131.433 131.035 141.966  1.00  7.74     0.038 A 
HETATM    7  C02   D T2601     130.412 131.034 142.877  1.00  9.17    -0.014 A 
HETATM    8  C01   D T2601     129.405 132.162 142.878  1.00 11.30     0.032 C 
HETATM    9  C07   D T2601     130.313 130.008 143.782  1.00 16.89    -0.004 A 
HETATM   10  C06   D T2601     131.248 128.989 143.760  1.00 11.92     0.004 A 
BRANCH   6  11
HETATM   11  C29   D T2601     131.520 132.174 140.980  1.00  7.67    -0.060 C 
HETATM   12  C30   D T2601     131.589 133.072 140.224  1.00  4.53    -0.058 C 
BRANCH  12  13
HETATM   13  C31   D T2601     131.699 134.233 139.259  1.00  1.76     0.061 A 
HETATM   14  C32   D T2601     130.871 135.316 139.324  1.00  3.61     0.015 A 
HETATM   15  C33   D T2601     131.074 136.255 138.416  1.00  5.57     0.059 A 
HETATM   16  C34   D T2601     132.075 136.161 137.444  1.00  6.17     0.185 A 
HETATM   17  C37   D T2601     130.537 137.527 138.042  1.00  9.96     0.125 A 
HETATM   18  N35   D T2601     131.881 137.380 136.753  1.00  3.26    -0.129 NA
HETATM   19  N38   D T2601     132.879 135.134 137.353  1.00 12.99    -0.223 NA
HETATM   20  N36   D T2601     130.963 138.229 137.091  1.00  6.50    -0.145 NA
HETATM   21  C39   D T2601     132.705 134.144 138.270  1.00  5.57     0.109 A 
ENDBRANCH  12  13
ENDBRANCH   6  11
ENDBRANCH   2   4
BRANCH   1  22
HETATM   22  C11   D T2601     134.060 125.466 142.487  1.00 11.94     0.085 A 
HETATM   23  C12   D T2601     134.494 124.813 143.615  1.00  8.64     0.023 A 
HETATM   24  C13   D T2601     135.484 123.839 143.584  1.00  5.16     0.074 A 
HETATM   25  C14   D T2601     136.081 123.473 142.352  1.00  9.71     0.016 A 
HETATM   26  C15   D T2601     135.605 124.124 141.211  1.00  7.63     0.003 A 
HETATM   27  C16   D T2601     134.621 125.118 141.277  1.00  5.68     0.019 A 
BRANCH  24  28
HETATM   28  C25   D T2601     135.881 123.206 144.899  1.00  8.83     0.419 C 
HETATM   29  F26   D T2601     135.854 121.861 144.804  1.00 15.45    -0.166 F 
HETATM   30  F27   D T2601     137.130 123.586 145.206  1.00  6.64    -0.166 F 
HETATM   31  F28   D T2601     135.046 123.657 145.851  1.00 29.12    -0.166 F 
ENDBRANCH  24  28
BRANCH  25  32
HETATM   32  C17   D T2601     137.173 122.333 142.308  1.00 12.70     0.051 C 
BRANCH  32  33
HETATM   33  N18   D T2601     138.451 122.615 142.012  1.00 13.52    -0.228 NA
HETATM   34  C19   D T2601     138.535 123.795 141.471  1.00 14.71     0.099 C 
HETATM   35  C20   D T2601     139.966 124.255 141.150  1.00  4.84     0.095 C 
HETATM   36  N21   D T2601     140.718 124.118 142.212  1.00  2.05    -0.248 NA
HETATM   37  C22   D T2601     140.664 122.859 142.482  1.00  7.08     0.060 C 
HETATM   38  C24   D T2601     141.947 124.428 141.942  1.00  7.31     0.094 C 
HETATM   39  C23   D T2601     139.278 122.503 142.978  1.00 11.65     0.063 C 
ENDBRANCH  32  33
ENDBRANCH  25  32
ENDBRANCH   1  22
TORSDOF 7
ENDMDL
MODEL 8
REMARK VINA RESULT:    -7.771      7.953     11.856
REMARK INTER + INTRA:         -11.718
REMARK INTER:                 -11.074
REMARK INTRA:                  -0.644
REMARK UNBOUND:                -0.767
REMARK  7 active torsions:
REMARK  status: ('A' for Active; 'I' for Inactive)
REMARK    1  A    between atoms: C13_1  and  C25_22 
REMARK    2  A    between atoms: C17_3  and  C14_7 
REMARK    3  A    between atoms: C17_3  and  N18_34 
REMARK    4  A    between atoms: C11_5  and  N10_10 
REMARK       I    between atoms: N10_10  and  C08_18 
REMARK    5  A    between atoms: C03_13  and  C29_23 
REMARK    6  A    between atoms: C05_15  and  C08_18 
REMARK    7  A    between atoms: C30_24  and  C31_25 
ROOT
HETATM    1  N10   D T2601     134.126 129.348 136.114  1.00 11.81    -0.208 NA
HETATM    2  C08   D T2601     133.315 128.139 136.286  1.00  5.67     0.279 C 
HETATM    3  O09   D T2601     132.722 127.650 135.421  1.00  9.79    -0.265 OA
ENDROOT
BRANCH   2   4
HETATM    4  C05   D T2601     133.196 127.388 137.606  1.00  3.60     0.059 A 
HETATM    5  C04   D T2601     134.337 126.796 138.075  1.00  5.11     0.013 A 
HETATM    6  C03   D T2601     134.280 126.126 139.262  1.00  7.74     0.038 A 
HETATM    7  C02   D T2601     133.121 126.036 139.985  1.00  9.17    -0.014 A 
HETATM    8  C01   D T2601     133.108 125.276 141.292  1.00 11.30     0.032 C 
HETATM    9  C07   D T2601     131.981 126.638 139.514  1.00 16.89    -0.004 A 
HETATM   10  C06   D T2601     132.020 127.325 138.315  1.00 11.92     0.004 A 
BRANCH   6  11
HETATM   11  C29   D T2601     135.520 125.456 139.801  1.00  7.67    -0.060 C 
HETATM   12  C30   D T2601     136.488 124.947 140.231  1.00  4.53    -0.058 C 
BRANCH  12  13
HETATM   13  C31   D T2601     137.725 124.288 140.804  1.00  1.76     0.061 A 
HETATM   14  C32   D T2601     137.682 123.500 141.917  1.00  3.61     0.015 A 
HETATM   15  C33   D T2601     138.836 122.992 142.312  1.00  5.57     0.059 A 
HETATM   16  C34   D T2601     140.038 123.235 141.638  1.00  6.17     0.185 A 
HETATM   17  C37   D T2601     139.345 122.147 143.348  1.00  9.96     0.125 A 
HETATM   18  N35   D T2601     140.937 122.485 142.432  1.00  3.26    -0.129 NA
HETATM   19  N38   D T2601     140.112 123.990 140.574  1.00 12.99    -0.223 NA
HETATM   20  N36   D T2601     140.550 121.813 143.470  1.00  6.50    -0.145 NA
HETATM   21  C39   D T2601     138.944 124.532 140.132  1.00  5.57     0.109 A 
ENDBRANCH  12  13
ENDBRANCH   6  11
ENDBRANCH   2   4
BRANCH   1  22
HETATM   22  C11   D T2601     134.233 130.050 134.809  1.00 11.94     0.085 A 
HETATM   23  C12   D T2601     135.174 129.660 133.888  1.00  8.64     0.023 A 
HETATM   24  C13   D T2601     135.326 130.287 132.657  1.00  5.16     0.074 A 
HETATM   25  C14   D T2601     134.483 131.370 132.304  1.00  9.71     0.016 A 
HETATM   26  C15   D T2601     133.509 131.733 133.239  1.00  7.63     0.003 A 
HETATM   27  C16   D T2601     133.395 131.095 134.480  1.00  5.68     0.019 A 
BRANCH  24  28
HETATM   28  C25   D T2601     136.411 129.769 131.740  1.00  8.83     0.419 C 
HETATM   29  F26   D T2601     137.488 130.579 131.777  1.00 15.45    -0.166 F 
HETATM   30  F27   D T2601     136.782 128.547 132.151  1.00  6.64    -0.166 F 
HETATM   31  F28   D T2601     135.900 129.670 130.500  1.00 29.12    -0.166 F 
ENDBRANCH  24  28
BRANCH  25  32
HETATM   32  C17   D T2601     134.622 132.053 130.888  1.00 12.70     0.051 C 
BRANCH  32  33
HETATM   33  N18   D T2601     135.428 133.112 130.711  1.00 13.52    -0.228 NA
HETATM   34  C19   D T2601     135.823 133.571 131.862  1.00 14.71     0.099 C 
HETATM   35  C20   D T2601     136.808 134.747 131.783  1.00  4.84     0.095 C 
HETATM   36  N21   D T2601     137.796 134.436 130.983  1.00  2.05    -0.248 NA
HETATM   37  C22   D T2601     137.230 134.202 129.849  1.00  7.08     0.060 C 
HETATM   38  C24   D T2601     138.601 135.442 130.841  1.00  7.31     0.094 C 
HETATM   39  C23   D T2601     136.426 132.922 129.937  1.00 11.65     0.063 C 
ENDBRANCH  32  33
ENDBRANCH  25  32
ENDBRANCH   1  22
TORSDOF 7
ENDMDL
MODEL 9
REMARK VINA RESULT:    -7.729      8.330     11.610
REMARK INTER + INTRA:         -11.659
REMARK INTER:                 -11.177
REMARK INTRA:                  -0.483
REMARK UNBOUND:                -0.767
REMARK  7 active torsions:
REMARK  status: ('A' for Active; 'I' for Inactive)
REMARK    1  A    between atoms: C13_1  and  C25_22 
REMARK    2  A    between atoms: C17_3  and  C14_7 
REMARK    3  A    between atoms: C17_3  and  N18_34 
REMARK    4  A    between atoms: C11_5  and  N10_10 
REMARK       I    between atoms: N10_10  and  C08_18 
REMARK    5  A    between atoms: C03_13  and  C29_23 
REMARK    6  A    between atoms: C05_15  and  C08_18 
REMARK    7  A    between atoms: C30_24  and  C31_25 
ROOT
HETATM    1  N10   D T2601     133.449 129.571 136.235  1.00 11.81    -0.208 NA
HETATM    2  C08   D T2601     133.839 128.163 136.338  1.00  5.67     0.279 C 
HETATM    3  O09   D T2601     134.409 127.604 135.499  1.00  9.79    -0.265 OA
ENDROOT
BRANCH   2   4
HETATM    4  C05   D T2601     133.564 127.302 137.564  1.00  3.60     0.059 A 
HETATM    5  C04   D T2601     134.651 126.706 138.144  1.00  5.11     0.013 A 
HETATM    6  C03   D T2601     134.454 125.939 139.255  1.00  7.74     0.038 A 
HETATM    7  C02   D T2601     133.209 125.756 139.794  1.00  9.17    -0.014 A 
HETATM    8  C01   D T2601     133.042 124.890 141.023  1.00 11.30     0.032 C 
HETATM    9  C07   D T2601     132.124 126.361 139.213  1.00 16.89    -0.004 A 
HETATM   10  C06   D T2601     132.304 127.147 138.090  1.00 11.92     0.004 A 
BRANCH   6  11
HETATM   11  C29   D T2601     135.632 125.263 139.913  1.00  7.67    -0.060 C 
HETATM   12  C30   D T2601     136.545 124.723 140.420  1.00  4.53    -0.058 C 
BRANCH  12  13
HETATM   13  C31   D T2601     137.728 124.021 141.052  1.00  1.76     0.061 A 
HETATM   14  C32   D T2601     137.596 123.205 142.139  1.00  3.61     0.015 A 
HETATM   15  C33   D T2601     138.712 122.660 142.592  1.00  5.57     0.059 A 
HETATM   16  C34   D T2601     139.959 122.892 142.003  1.00  6.17     0.185 A 
HETATM   17  C37   D T2601     139.134 121.776 143.635  1.00  9.96     0.125 A 
HETATM   18  N35   D T2601     140.789 122.101 142.831  1.00  3.26    -0.129 NA
HETATM   19  N38   D T2601     140.117 123.672 140.966  1.00 12.99    -0.223 NA
HETATM   20  N36   D T2601     140.321 121.412 143.824  1.00  6.50    -0.145 NA
HETATM   21  C39   D T2601     138.992 124.253 140.466  1.00  5.57     0.109 A 
ENDBRANCH  12  13
ENDBRANCH   6  11
ENDBRANCH   2   4
BRANCH   1  22
HETATM   22  C11   D T2601     133.743 130.388 135.029  1.00 11.94     0.085 A 
HETATM   23  C12   D T2601     135.039 130.721 134.718  1.00  8.64     0.023 A 
HETATM   24  C13   D T2601     135.371 131.491 133.609  1.00  5.16     0.074 A 
HETATM   25  C14   D T2601     134.354 131.957 132.739  1.00  9.71     0.016 A 
HETATM   26  C15   D T2601     133.045 131.583 133.052  1.00  7.63     0.003 A 
HETATM   27  C16   D T2601     132.739 130.824 134.188  1.00  5.68     0.019 A 
BRANCH  24  28
HETATM   28  C25   D T2601     136.835 131.798 133.387  1.00  8.83     0.419 C 
HETATM   29  F26   D T2601     137.369 130.935 132.500  1.00 15.45    -0.166 F 
HETATM   30  F27   D T2601     136.951 133.040 132.896  1.00  6.64    -0.166 F 
HETATM   31  F28   D T2601     137.461 131.744 134.577  1.00 29.12    -0.166 F 
ENDBRANCH  24  28
BRANCH  25  32
HETATM   32  C17   D T2601     134.733 132.793 131.454  1.00 12.70     0.051 C 
BRANCH  32  33
HETATM   33  N18   D T2601     134.566 132.279 130.226  1.00 13.52    -0.228 NA
HETATM   34  C19   D T2601     134.973 131.044 130.198  1.00 14.71     0.099 C 
HETATM   35  C20   D T2601     134.767 130.328 128.854  1.00  4.84     0.095 C 
HETATM   36  N21   D T2601     133.525 130.473 128.467  1.00  2.05    -0.248 NA
HETATM   37  C22   D T2601     133.368 131.748 128.366  1.00  7.08     0.060 C 
HETATM   38  C24   D T2601     133.348 129.942 127.298  1.00  7.31     0.094 C 
HETATM   39  C23   D T2601     133.387 132.375 129.743  1.00 11.65     0.063 C 
ENDBRANCH  32  33
ENDBRANCH  25  32
ENDBRANCH   1  22
TORSDOF 7
ENDMDL
