MODEL 1
REMARK VINA RESULT:      -8.8      0.000      0.000
REMARK  7 active torsions:
REMARK  status: ('A' for Active; 'I' for Inactive)
REMARK    1  A    between atoms: C13_1  and  C25_22 
REMARK    2  A    between atoms: C17_3  and  C14_7 
REMARK    3  A    between atoms: C17_3  and  N18_34 
REMARK    4  A    between atoms: C11_5  and  N10_10 
REMARK       I    between atoms: N10_10  and  C08_18 
REMARK    5  A    between atoms: C03_13  and  C29_23 
REMARK    6  A    between atoms: C05_15  and  C08_18 
REMARK    7  A    between atoms: C30_24  and  C31_25 
ROOT
HETATM    1  N10   D T2601     134.075 125.472 142.359  1.00 11.81    -0.208 NA
HETATM    2  C08   D T2601     134.918 124.708 143.283  1.00  5.67     0.279 C 
HETATM    3  O09   D T2601     134.608 124.478 144.374  1.00  9.79    -0.265 OA
ENDROOT
BRANCH   2   4
HETATM    4  C05   D T2601     136.266 124.115 142.895  1.00  3.60     0.059 A 
HETATM    5  C04   D T2601     136.980 124.796 141.946  1.00  5.11     0.013 A 
HETATM    6  C03   D T2601     138.201 124.309 141.580  1.00  7.74     0.038 A 
HETATM    7  C02   D T2601     138.720 123.171 142.135  1.00  9.17    -0.014 A 
HETATM    8  C01   D T2601     140.075 122.669 141.690  1.00 11.30     0.032 C 
HETATM    9  C07   D T2601     138.005 122.497 143.091  1.00 16.89    -0.004 A 
HETATM   10  C06   D T2601     136.767 122.977 143.479  1.00 11.92     0.004 A 
BRANCH   6  11
HETATM   11  C29   D T2601     139.008 125.034 140.530  1.00  7.67    -0.060 C 
HETATM   12  C30   D T2601     139.648 125.599 139.723  1.00  4.53    -0.058 C 
BRANCH  12  13
HETATM   13  C31   D T2601     140.488 126.310 138.683  1.00  1.76     0.061 A 
HETATM   14  C32   D T2601     140.493 127.669 138.556  1.00  3.61     0.015 A 
HETATM   15  C33   D T2601     141.268 128.159 137.603  1.00  5.57     0.059 A 
HETATM   16  C34   D T2601     142.046 127.346 136.771  1.00  6.17     0.185 A 
HETATM   17  C37   D T2601     141.639 129.429 137.061  1.00  9.96     0.125 A 
HETATM   18  N35   D T2601     142.669 128.325 135.962  1.00  3.26    -0.129 NA
HETATM   19  N38   D T2601     142.057 126.042 136.865  1.00 12.99    -0.223 NA
HETATM   20  N36   D T2601     142.447 129.592 136.113  1.00  6.50    -0.145 NA
HETATM   21  C39   D T2601     141.272 125.497 137.835  1.00  5.57     0.109 A 
ENDBRANCH  12  13
ENDBRANCH   6  11
ENDBRANCH   2   4
BRANCH   1  22
HETATM   22  C11   D T2601     132.758 126.027 142.764  1.00 11.94     0.085 A 
HETATM   23  C12   D T2601     132.646 127.347 143.132  1.00  8.64     0.023 A 
HETATM   24  C13   D T2601     131.442 127.916 143.530  1.00  5.16     0.074 A 
HETATM   25  C14   D T2601     130.262 127.132 143.556  1.00  9.71     0.016 A 
HETATM   26  C15   D T2601     130.387 125.802 143.148  1.00  7.63     0.003 A 
HETATM   27  C16   D T2601     131.618 125.251 142.773  1.00  5.68     0.019 A 
BRANCH  24  28
HETATM   28  C25   D T2601     131.458 129.376 143.923  1.00  8.83     0.419 C 
HETATM   29  F26   D T2601     131.434 129.504 145.265  1.00 15.45    -0.166 F 
HETATM   30  F27   D T2601     132.583 129.939 143.461  1.00  6.64    -0.166 F 
HETATM   31  F28   D T2601     130.404 129.978 143.344  1.00 29.12    -0.166 F 
ENDBRANCH  24  28
BRANCH  25  32
HETATM   32  C17   D T2601     128.884 127.788 143.962  1.00 12.70     0.051 C 
BRANCH  32  33
HETATM   33  N18   D T2601     128.329 127.538 145.158  1.00 13.52    -0.228 NA
HETATM   34  C19   D T2601     127.985 126.286 145.239  1.00 14.71     0.099 C 
HETATM   35  C20   D T2601     127.397 125.866 146.595  1.00  4.84     0.095 C 
HETATM   36  N21   D T2601     128.200 126.245 147.556  1.00  2.05    -0.248 NA
HETATM   37  C22   D T2601     128.265 127.526 147.433  1.00  7.08     0.060 C 
HETATM   38  C24   D T2601     127.687 125.969 148.713  1.00  7.31     0.094 C 
HETATM   39  C23   D T2601     129.026 127.879 146.172  1.00 11.65     0.063 C 
ENDBRANCH  32  33
ENDBRANCH  25  32
ENDBRANCH   1  22
TORSDOF 7
ENDMDL
MODEL 2
REMARK VINA RESULT:      -8.8      6.554      9.300
REMARK  7 active torsions:
REMARK  status: ('A' for Active; 'I' for Inactive)
REMARK    1  A    between atoms: C13_1  and  C25_22 
REMARK    2  A    between atoms: C17_3  and  C14_7 
REMARK    3  A    between atoms: C17_3  and  N18_34 
REMARK    4  A    between atoms: C11_5  and  N10_10 
REMARK       I    between atoms: N10_10  and  C08_18 
REMARK    5  A    between atoms: C03_13  and  C29_23 
REMARK    6  A    between atoms: C05_15  and  C08_18 
REMARK    7  A    between atoms: C30_24  and  C31_25 
ROOT
HETATM    1  N10   D T2601     134.612 126.821 138.777  1.00 11.81    -0.208 NA
HETATM    2  C08   D T2601     134.539 126.799 137.314  1.00  5.67     0.279 C 
HETATM    3  O09   D T2601     135.070 125.998 136.669  1.00  9.79    -0.265 OA
ENDROOT
BRANCH   2   4
HETATM    4  C05   D T2601     133.738 127.805 136.498  1.00  3.60     0.059 A 
HETATM    5  C04   D T2601     134.445 128.567 135.608  1.00  5.11     0.013 A 
HETATM    6  C03   D T2601     133.765 129.470 134.844  1.00  7.74     0.038 A 
HETATM    7  C02   D T2601     132.409 129.627 134.947  1.00  9.17    -0.014 A 
HETATM    8  C01   D T2601     131.703 130.647 134.082  1.00 11.30     0.032 C 
HETATM    9  C07   D T2601     131.704 128.856 135.836  1.00 16.89    -0.004 A 
HETATM   10  C06   D T2601     132.374 127.932 136.616  1.00 11.92     0.004 A 
BRANCH   6  11
HETATM   11  C29   D T2601     134.518 130.330 133.858  1.00  7.67    -0.060 C 
HETATM   12  C30   D T2601     135.093 131.010 133.091  1.00  4.53    -0.058 C 
BRANCH  12  13
HETATM   13  C31   D T2601     135.833 131.901 132.117  1.00  1.76     0.061 A 
HETATM   14  C32   D T2601     136.040 131.547 130.815  1.00  3.61     0.015 A 
HETATM   15  C33   D T2601     136.705 132.417 130.076  1.00  5.57     0.059 A 
HETATM   16  C34   D T2601     137.173 133.635 130.582  1.00  6.17     0.185 A 
HETATM   17  C37   D T2601     137.173 132.556 128.732  1.00  9.96     0.125 A 
HETATM   18  N35   D T2601     137.788 134.176 129.429  1.00  3.26    -0.129 NA
HETATM   19  N38   D T2601     136.996 133.999 131.825  1.00 12.99    -0.223 NA
HETATM   20  N36   D T2601     137.803 133.551 128.294  1.00  6.50    -0.145 NA
HETATM   21  C39   D T2601     136.313 133.131 132.621  1.00  5.57     0.109 A 
ENDBRANCH  12  13
ENDBRANCH   6  11
ENDBRANCH   2   4
BRANCH   1  22
HETATM   22  C11   D T2601     135.393 125.817 139.546  1.00 11.94     0.085 A 
HETATM   23  C12   D T2601     136.686 126.088 139.925  1.00  8.64     0.023 A 
HETATM   24  C13   D T2601     137.465 125.183 140.635  1.00  5.16     0.074 A 
HETATM   25  C14   D T2601     136.930 123.925 141.008  1.00  9.71     0.016 A 
HETATM   26  C15   D T2601     135.604 123.679 140.643  1.00  7.63     0.003 A 
HETATM   27  C16   D T2601     134.850 124.602 139.909  1.00  5.68     0.019 A 
BRANCH  24  28
HETATM   28  C25   D T2601     138.878 125.600 140.978  1.00  8.83     0.419 C 
HETATM   29  F26   D T2601     139.073 125.557 142.312  1.00 15.45    -0.166 F 
HETATM   30  F27   D T2601     139.737 124.751 140.395  1.00  6.64    -0.166 F 
HETATM   31  F28   D T2601     139.085 126.832 140.481  1.00 29.12    -0.166 F 
ENDBRANCH  24  28
BRANCH  25  32
HETATM   32  C17   D T2601     137.798 122.914 141.855  1.00 12.70     0.051 C 
BRANCH  32  33
HETATM   33  N18   D T2601     137.417 122.544 143.088  1.00 13.52    -0.228 NA
HETATM   34  C19   D T2601     138.437 122.556 143.895  1.00 14.71     0.099 C 
HETATM   35  C20   D T2601     138.107 122.212 145.355  1.00  4.84     0.095 C 
HETATM   36  N21   D T2601     137.114 122.960 145.766  1.00  2.05    -0.248 NA
HETATM   37  C22   D T2601     136.144 122.670 144.969  1.00  7.08     0.060 C 
HETATM   38  C24   D T2601     136.768 122.634 146.971  1.00  7.31     0.094 C 
HETATM   39  C23   D T2601     136.443 123.205 143.585  1.00 11.65     0.063 C 
ENDBRANCH  32  33
ENDBRANCH  25  32
ENDBRANCH   1  22
TORSDOF 7
ENDMDL
MODEL 3
REMARK VINA RESULT:      -8.7      2.134      2.564
REMARK  7 active torsions:
REMARK  status: ('A' for Active; 'I' for Inactive)
REMARK    1  A    between atoms: C13_1  and  C25_22 
REMARK    2  A    between atoms: C17_3  and  C14_7 
REMARK    3  A    between atoms: C17_3  and  N18_34 
REMARK    4  A    between atoms: C11_5  and  N10_10 
REMARK       I    between atoms: N10_10  and  C08_18 
REMARK    5  A    between atoms: C03_13  and  C29_23 
REMARK    6  A    between atoms: C05_15  and  C08_18 
REMARK    7  A    between atoms: C30_24  and  C31_25 
ROOT
HETATM    1  N10   D T2601     134.503 124.932 142.324  1.00 11.81    -0.208 NA
HETATM    2  C08   D T2601     135.271 124.094 143.249  1.00  5.67     0.279 C 
HETATM    3  O09   D T2601     134.805 123.604 144.189  1.00  9.79    -0.265 OA
ENDROOT
BRANCH   2   4
HETATM    4  C05   D T2601     136.744 123.757 143.053  1.00  3.60     0.059 A 
HETATM    5  C04   D T2601     137.399 124.446 142.069  1.00  5.11     0.013 A 
HETATM    6  C03   D T2601     138.724 124.189 141.870  1.00  7.74     0.038 A 
HETATM    7  C02   D T2601     139.402 123.268 142.623  1.00  9.17    -0.014 A 
HETATM    8  C01   D T2601     140.869 123.013 142.358  1.00 11.30     0.032 C 
HETATM    9  C07   D T2601     138.742 122.585 143.612  1.00 16.89    -0.004 A 
HETATM   10  C06   D T2601     137.400 122.836 143.833  1.00 11.92     0.004 A 
BRANCH   6  11
HETATM   11  C29   D T2601     139.473 124.928 140.788  1.00  7.67    -0.060 C 
HETATM   12  C30   D T2601     140.043 125.511 139.941  1.00  4.53    -0.058 C 
BRANCH  12  13
HETATM   13  C31   D T2601     140.771 126.280 138.860  1.00  1.76     0.061 A 
HETATM   14  C32   D T2601     140.840 127.643 138.856  1.00  3.61     0.015 A 
HETATM   15  C33   D T2601     141.504 128.187 137.850  1.00  5.57     0.059 A 
HETATM   16  C34   D T2601     142.109 127.424 136.845  1.00  6.17     0.185 A 
HETATM   17  C37   D T2601     141.872 129.485 137.377  1.00  9.96     0.125 A 
HETATM   18  N35   D T2601     142.671 128.447 136.046  1.00  3.26    -0.129 NA
HETATM   19  N38   D T2601     142.055 126.118 136.819  1.00 12.99    -0.223 NA
HETATM   20  N36   D T2601     142.549 129.703 136.341  1.00  6.50    -0.145 NA
HETATM   21  C39   D T2601     141.381 125.518 137.838  1.00  5.57     0.109 A 
ENDBRANCH  12  13
ENDBRANCH   6  11
ENDBRANCH   2   4
BRANCH   1  22
HETATM   22  C11   D T2601     133.063 125.232 142.536  1.00 11.94     0.085 A 
HETATM   23  C12   D T2601     132.101 124.514 141.866  1.00  8.64     0.023 A 
HETATM   24  C13   D T2601     130.742 124.759 142.017  1.00  5.16     0.074 A 
HETATM   25  C14   D T2601     130.297 125.775 142.900  1.00  9.71     0.016 A 
HETATM   26  C15   D T2601     131.287 126.472 143.597  1.00  7.63     0.003 A 
HETATM   27  C16   D T2601     132.651 126.218 143.407  1.00  5.68     0.019 A 
BRANCH  24  28
HETATM   28  C25   D T2601     129.787 123.906 141.212  1.00  8.83     0.419 C 
HETATM   29  F26   D T2601     129.073 124.672 140.362  1.00 15.45    -0.166 F 
HETATM   30  F27   D T2601     130.493 123.019 140.496  1.00  6.64    -0.166 F 
HETATM   31  F28   D T2601     128.995 123.238 142.069  1.00 29.12    -0.166 F 
ENDBRANCH  24  28
BRANCH  25  32
HETATM   32  C17   D T2601     128.752 126.022 143.109  1.00 12.70     0.051 C 
BRANCH  32  33
HETATM   33  N18   D T2601     128.206 125.971 144.333  1.00 13.52    -0.228 NA
HETATM   34  C19   D T2601     128.706 124.975 145.005  1.00 14.71     0.099 C 
HETATM   35  C20   D T2601     128.203 124.856 146.452  1.00  4.84     0.095 C 
HETATM   36  N21   D T2601     128.339 126.008 147.057  1.00  2.05    -0.248 NA
HETATM   37  C22   D T2601     127.623 126.823 146.361  1.00  7.08     0.060 C 
HETATM   38  C24   D T2601     127.850 125.953 148.256  1.00  7.31     0.094 C 
HETATM   39  C23   D T2601     128.274 127.050 145.013  1.00 11.65     0.063 C 
ENDBRANCH  32  33
ENDBRANCH  25  32
ENDBRANCH   1  22
TORSDOF 7
ENDMDL
MODEL 4
REMARK VINA RESULT:      -8.5      3.392     12.652
REMARK  7 active torsions:
REMARK  status: ('A' for Active; 'I' for Inactive)
REMARK    1  A    between atoms: C13_1  and  C25_22 
REMARK    2  A    between atoms: C17_3  and  C14_7 
REMARK    3  A    between atoms: C17_3  and  N18_34 
REMARK    4  A    between atoms: C11_5  and  N10_10 
REMARK       I    between atoms: N10_10  and  C08_18 
REMARK    5  A    between atoms: C03_13  and  C29_23 
REMARK    6  A    between atoms: C05_15  and  C08_18 
REMARK    7  A    between atoms: C30_24  and  C31_25 
ROOT
HETATM    1  N10   D T2601     135.710 125.015 139.874  1.00 11.81    -0.208 NA
HETATM    2  C08   D T2601     134.783 125.978 140.475  1.00  5.67     0.279 C 
HETATM    3  O09   D T2601     135.125 126.998 140.904  1.00  9.79    -0.265 OA
ENDROOT
BRANCH   2   4
HETATM    4  C05   D T2601     133.280 125.752 140.570  1.00  3.60     0.059 A 
HETATM    5  C04   D T2601     132.717 125.915 141.806  1.00  5.11     0.013 A 
HETATM    6  C03   D T2601     131.370 125.738 141.934  1.00  7.74     0.038 A 
HETATM    7  C02   D T2601     130.581 125.406 140.866  1.00  9.17    -0.014 A 
HETATM    8  C01   D T2601     129.094 125.214 141.062  1.00 11.30     0.032 C 
HETATM    9  C07   D T2601     131.150 125.250 139.628  1.00 16.89    -0.004 A 
HETATM   10  C06   D T2601     132.512 125.430 139.477  1.00 11.92     0.004 A 
BRANCH   6  11
HETATM   11  C29   D T2601     130.721 125.905 143.287  1.00  7.67    -0.060 C 
HETATM   12  C30   D T2601     130.202 126.033 144.333  1.00  4.53    -0.058 C 
BRANCH  12  13
HETATM   13  C31   D T2601     129.525 126.178 145.679  1.00  1.76     0.061 A 
HETATM   14  C32   D T2601     129.130 125.100 146.417  1.00  3.61     0.015 A 
HETATM   15  C33   D T2601     128.546 125.370 147.572  1.00  5.57     0.059 A 
HETATM   16  C34   D T2601     128.343 126.677 148.027  1.00  6.17     0.185 A 
HETATM   17  C37   D T2601     127.973 124.671 148.680  1.00  9.96     0.125 A 
HETATM   18  N35   D T2601     127.712 126.425 149.267  1.00  3.26    -0.129 NA
HETATM   19  N38   D T2601     128.705 127.729 147.341  1.00 12.99    -0.223 NA
HETATM   20  N36   D T2601     127.477 125.224 149.693  1.00  6.50    -0.145 NA
HETATM   21  C39   D T2601     129.311 127.495 146.144  1.00  5.57     0.109 A 
ENDBRANCH  12  13
ENDBRANCH   6  11
ENDBRANCH   2   4
BRANCH   1  22
HETATM   22  C11   D T2601     137.171 125.271 139.785  1.00 11.94     0.085 A 
HETATM   23  C12   D T2601     138.015 124.810 140.766  1.00  8.64     0.023 A 
HETATM   24  C13   D T2601     139.387 125.030 140.740  1.00  5.16     0.074 A 
HETATM   25  C14   D T2601     139.971 125.745 139.665  1.00  9.71     0.016 A 
HETATM   26  C15   D T2601     139.102 126.178 138.660  1.00  7.63     0.003 A 
HETATM   27  C16   D T2601     137.721 125.961 138.724  1.00  5.68     0.019 A 
BRANCH  24  28
HETATM   28  C25   D T2601     140.203 124.481 141.889  1.00  8.83     0.419 C 
HETATM   29  F26   D T2601     140.892 125.469 142.494  1.00 15.45    -0.166 F 
HETATM   30  F27   D T2601     139.374 123.929 142.787  1.00  6.64    -0.166 F 
HETATM   31  F28   D T2601     141.016 123.524 141.408  1.00 29.12    -0.166 F 
ENDBRANCH  24  28
BRANCH  25  32
HETATM   32  C17   D T2601     141.535 125.954 139.609  1.00 12.70     0.051 C 
BRANCH  32  33
HETATM   33  N18   D T2601     142.061 127.080 139.101  1.00 13.52    -0.228 NA
HETATM   34  C19   D T2601     141.956 127.077 137.804  1.00 14.71     0.099 C 
HETATM   35  C20   D T2601     142.467 128.351 137.114  1.00  4.84     0.095 C 
HETATM   36  N21   D T2601     141.920 129.400 137.675  1.00  2.05    -0.248 NA
HETATM   37  C22   D T2601     142.292 129.335 138.907  1.00  7.08     0.060 C 
HETATM   38  C24   D T2601     142.395 130.490 137.160  1.00  7.31     0.094 C 
HETATM   39  C23   D T2601     141.604 128.170 139.586  1.00 11.65     0.063 C 
ENDBRANCH  32  33
ENDBRANCH  25  32
ENDBRANCH   1  22
TORSDOF 7
ENDMDL
MODEL 5
REMARK VINA RESULT:      -8.4      3.539     12.858
REMARK  7 active torsions:
REMARK  status: ('A' for Active; 'I' for Inactive)
REMARK    1  A    between atoms: C13_1  and  C25_22 
REMARK    2  A    between atoms: C17_3  and  C14_7 
REMARK    3  A    between atoms: C17_3  and  N18_34 
REMARK    4  A    between atoms: C11_5  and  N10_10 
REMARK       I    between atoms: N10_10  and  C08_18 
REMARK    5  A    between atoms: C03_13  and  C29_23 
REMARK    6  A    between atoms: C05_15  and  C08_18 
REMARK    7  A    between atoms: C30_24  and  C31_25 
ROOT
HETATM    1  N10   D T2601     134.788 126.555 142.634  1.00 11.81    -0.208 NA
HETATM    2  C08   D T2601     133.424 126.492 142.102  1.00  5.67     0.279 C 
HETATM    3  O09   D T2601     133.169 126.017 141.077  1.00  9.79    -0.265 OA
ENDROOT
BRANCH   2   4
HETATM    4  C05   D T2601     132.205 127.015 142.850  1.00  3.60     0.059 A 
HETATM    5  C04   D T2601     131.772 126.262 143.908  1.00  5.11     0.013 A 
HETATM    6  C03   D T2601     130.692 126.700 144.617  1.00  7.74     0.038 A 
HETATM    7  C02   D T2601     130.042 127.862 144.298  1.00  9.17    -0.014 A 
HETATM    8  C01   D T2601     128.846 128.301 145.111  1.00 11.30     0.032 C 
HETATM    9  C07   D T2601     130.484 128.616 143.241  1.00 16.89    -0.004 A 
HETATM   10  C06   D T2601     131.580 128.191 142.513  1.00 11.92     0.004 A 
BRANCH   6  11
HETATM   11  C29   D T2601     130.187 125.888 145.785  1.00  7.67    -0.060 C 
HETATM   12  C30   D T2601     129.784 125.249 146.685  1.00  4.53    -0.058 C 
BRANCH  12  13
HETATM   13  C31   D T2601     129.270 124.407 147.833  1.00  1.76     0.061 A 
HETATM   14  C32   D T2601     129.714 123.136 148.061  1.00  3.61     0.015 A 
HETATM   15  C33   D T2601     129.177 122.513 149.096  1.00  5.57     0.059 A 
HETATM   16  C34   D T2601     128.216 123.107 149.920  1.00  6.17     0.185 A 
HETATM   17  C37   D T2601     129.268 121.248 149.759  1.00  9.96     0.125 A 
HETATM   18  N35   D T2601     127.985 122.062 150.845  1.00  3.26    -0.129 NA
HETATM   19  N38   D T2601     127.767 124.319 149.723  1.00 12.99    -0.223 NA
HETATM   20  N36   D T2601     128.607 120.927 150.777  1.00  6.50    -0.145 NA
HETATM   21  C39   D T2601     128.295 124.998 148.668  1.00  5.57     0.109 A 
ENDBRANCH  12  13
ENDBRANCH   6  11
ENDBRANCH   2   4
BRANCH   1  22
HETATM   22  C11   D T2601     135.956 126.024 141.884  1.00 11.94     0.085 A 
HETATM   23  C12   D T2601     136.742 125.040 142.434  1.00  8.64     0.023 A 
HETATM   24  C13   D T2601     137.852 124.515 141.783  1.00  5.16     0.074 A 
HETATM   25  C14   D T2601     138.206 124.985 140.494  1.00  9.71     0.016 A 
HETATM   26  C15   D T2601     137.378 125.962 139.937  1.00  7.63     0.003 A 
HETATM   27  C16   D T2601     136.278 126.488 140.626  1.00  5.68     0.019 A 
BRANCH  24  28
HETATM   28  C25   D T2601     138.640 123.444 142.503  1.00  8.83     0.419 C 
HETATM   29  F26   D T2601     138.692 122.318 141.764  1.00 15.45    -0.166 F 
HETATM   30  F27   D T2601     139.892 123.883 142.700  1.00  6.64    -0.166 F 
HETATM   31  F28   D T2601     138.064 123.232 143.700  1.00 29.12    -0.166 F 
ENDBRANCH  24  28
BRANCH  25  32
HETATM   32  C17   D T2601     139.439 124.357 139.733  1.00 12.70     0.051 C 
BRANCH  32  33
HETATM   33  N18   D T2601     140.522 125.096 139.449  1.00 13.52    -0.228 NA
HETATM   34  C19   D T2601     140.445 125.556 138.235  1.00 14.71     0.099 C 
HETATM   35  C20   D T2601     141.604 126.476 137.820  1.00  4.84     0.095 C 
HETATM   36  N21   D T2601     141.760 127.414 138.720  1.00  2.05    -0.248 NA
HETATM   37  C22   D T2601     142.017 126.774 139.809  1.00  7.08     0.060 C 
HETATM   38  C24   D T2601     142.782 128.157 138.430  1.00  7.31     0.094 C 
HETATM   39  C23   D T2601     140.777 126.039 140.272  1.00 11.65     0.063 C 
ENDBRANCH  32  33
ENDBRANCH  25  32
ENDBRANCH   1  22
TORSDOF 7
ENDMDL
MODEL 6
REMARK VINA RESULT:      -8.0      5.749     10.466
REMARK  7 active torsions:
REMARK  status: ('A' for Active; 'I' for Inactive)
REMARK    1  A    between atoms: C13_1  and  C25_22 
REMARK    2  A    between atoms: C17_3  and  C14_7 
REMARK    3  A    between atoms: C17_3  and  N18_34 
REMARK    4  A    between atoms: C11_5  and  N10_10 
REMARK       I    between atoms: N10_10  and  C08_18 
REMARK    5  A    between atoms: C03_13  and  C29_23 
REMARK    6  A    between atoms: C05_15  and  C08_18 
REMARK    7  A    between atoms: C30_24  and  C31_25 
ROOT
HETATM    1  N10   D T2601     133.166 126.517 142.693  1.00 11.81    -0.208 NA
HETATM    2  C08   D T2601     133.482 127.947 142.731  1.00  5.67     0.279 C 
HETATM    3  O09   D T2601     134.564 128.355 142.675  1.00  9.79    -0.265 OA
ENDROOT
BRANCH   2   4
HETATM    4  C05   D T2601     132.424 129.040 142.816  1.00  3.60     0.059 A 
HETATM    5  C04   D T2601     132.525 130.056 141.905  1.00  5.11     0.013 A 
HETATM    6  C03   D T2601     131.589 131.049 141.935  1.00  7.74     0.038 A 
HETATM    7  C02   D T2601     130.565 131.048 142.843  1.00  9.17    -0.014 A 
HETATM    8  C01   D T2601     129.557 132.175 142.839  1.00 11.30     0.032 C 
HETATM    9  C07   D T2601     130.465 130.024 143.750  1.00 16.89    -0.004 A 
HETATM   10  C06   D T2601     131.401 129.007 143.733  1.00 11.92     0.004 A 
BRANCH   6  11
HETATM   11  C29   D T2601     131.677 132.186 140.947  1.00  7.67    -0.060 C 
HETATM   12  C30   D T2601     131.734 133.066 140.170  1.00  4.53    -0.058 C 
BRANCH  12  13
HETATM   13  C31   D T2601     131.786 134.206 139.175  1.00  1.76     0.061 A 
HETATM   14  C32   D T2601     130.970 135.296 139.272  1.00  3.61     0.015 A 
HETATM   15  C33   D T2601     131.119 136.215 138.333  1.00  5.57     0.059 A 
HETATM   16  C34   D T2601     132.054 136.095 137.300  1.00  6.17     0.185 A 
HETATM   17  C37   D T2601     130.566 137.483 137.969  1.00  9.96     0.125 A 
HETATM   18  N35   D T2601     131.822 137.301 136.598  1.00  3.26    -0.129 NA
HETATM   19  N38   D T2601     132.845 135.061 137.178  1.00 12.99    -0.223 NA
HETATM   20  N36   D T2601     130.932 138.163 136.978  1.00  6.50    -0.145 NA
HETATM   21  C39   D T2601     132.725 134.091 138.126  1.00  5.57     0.109 A 
ENDBRANCH  12  13
ENDBRANCH   6  11
ENDBRANCH   2   4
BRANCH   1  22
HETATM   22  C11   D T2601     134.221 125.475 142.597  1.00 11.94     0.085 A 
HETATM   23  C12   D T2601     134.632 124.800 143.721  1.00  8.64     0.023 A 
HETATM   24  C13   D T2601     135.621 123.825 143.691  1.00  5.16     0.074 A 
HETATM   25  C14   D T2601     136.242 123.481 142.465  1.00  9.71     0.016 A 
HETATM   26  C15   D T2601     135.789 124.154 141.327  1.00  7.63     0.003 A 
HETATM   27  C16   D T2601     134.806 125.148 141.391  1.00  5.68     0.019 A 
BRANCH  24  28
HETATM   28  C25   D T2601     135.991 123.167 145.002  1.00  8.83     0.419 C 
HETATM   29  F26   D T2601     135.891 121.826 144.902  1.00 15.45    -0.166 F 
HETATM   30  F27   D T2601     137.260 123.479 145.303  1.00  6.64    -0.166 F 
HETATM   31  F28   D T2601     135.186 123.659 145.961  1.00 29.12    -0.166 F 
ENDBRANCH  24  28
BRANCH  25  32
HETATM   32  C17   D T2601     137.333 122.340 142.421  1.00 12.70     0.051 C 
BRANCH  32  33
HETATM   33  N18   D T2601     138.606 122.617 142.099  1.00 13.52    -0.228 NA
HETATM   34  C19   D T2601     138.647 123.585 141.229  1.00 14.71     0.099 C 
HETATM   35  C20   D T2601     140.062 124.035 140.834  1.00  4.84     0.095 C 
HETATM   36  N21   D T2601     140.760 124.280 141.914  1.00  2.05    -0.248 NA
HETATM   37  C22   D T2601     140.769 123.159 142.550  1.00  7.08     0.060 C 
HETATM   38  C24   D T2601     141.981 124.587 141.606  1.00  7.31     0.094 C 
HETATM   39  C23   D T2601     139.383 122.864 143.082  1.00 11.65     0.063 C 
ENDBRANCH  32  33
ENDBRANCH  25  32
ENDBRANCH   1  22
TORSDOF 7
ENDMDL
MODEL 7
REMARK VINA RESULT:      -8.0      2.434      3.564
REMARK  7 active torsions:
REMARK  status: ('A' for Active; 'I' for Inactive)
REMARK    1  A    between atoms: C13_1  and  C25_22 
REMARK    2  A    between atoms: C17_3  and  C14_7 
REMARK    3  A    between atoms: C17_3  and  N18_34 
REMARK    4  A    between atoms: C11_5  and  N10_10 
REMARK       I    between atoms: N10_10  and  C08_18 
REMARK    5  A    between atoms: C03_13  and  C29_23 
REMARK    6  A    between atoms: C05_15  and  C08_18 
REMARK    7  A    between atoms: C30_24  and  C31_25 
ROOT
HETATM    1  N10   D T2601     133.891 126.424 142.607  1.00 11.81    -0.208 NA
HETATM    2  C08   D T2601     134.393 125.276 143.366  1.00  5.67     0.279 C 
HETATM    3  O09   D T2601     133.839 124.837 144.283  1.00  9.79    -0.265 OA
ENDROOT
BRANCH   2   4
HETATM    4  C05   D T2601     135.670 124.527 143.011  1.00  3.60     0.059 A 
HETATM    5  C04   D T2601     136.554 125.183 142.198  1.00  5.11     0.013 A 
HETATM    6  C03   D T2601     137.720 124.556 141.867  1.00  7.74     0.038 A 
HETATM    7  C02   D T2601     138.019 123.301 142.324  1.00  9.17    -0.014 A 
HETATM    8  C01   D T2601     139.321 122.646 141.923  1.00 11.30     0.032 C 
HETATM    9  C07   D T2601     137.133 122.650 143.144  1.00 16.89    -0.004 A 
HETATM   10  C06   D T2601     135.949 123.271 143.495  1.00 11.92     0.004 A 
BRANCH   6  11
HETATM   11  C29   D T2601     138.712 125.252 140.967  1.00  7.67    -0.060 C 
HETATM   12  C30   D T2601     139.472 125.799 140.257  1.00  4.53    -0.058 C 
BRANCH  12  13
HETATM   13  C31   D T2601     140.442 126.523 139.348  1.00  1.76     0.061 A 
HETATM   14  C32   D T2601     140.828 127.813 139.573  1.00  3.61     0.015 A 
HETATM   15  C33   D T2601     141.676 128.324 138.698  1.00  5.57     0.059 A 
HETATM   16  C34   D T2601     142.163 127.599 137.606  1.00  6.17     0.185 A 
HETATM   17  C37   D T2601     142.372 129.551 138.461  1.00  9.96     0.125 A 
HETATM   18  N35   D T2601     143.009 128.563 137.010  1.00  3.26    -0.129 NA
HETATM   19  N38   D T2601     141.808 126.365 137.361  1.00 12.99    -0.223 NA
HETATM   20  N36   D T2601     143.161 129.752 137.503  1.00  6.50    -0.145 NA
HETATM   21  C39   D T2601     140.935 125.799 138.240  1.00  5.57     0.109 A 
ENDBRANCH  12  13
ENDBRANCH   6  11
ENDBRANCH   2   4
BRANCH   1  22
HETATM   22  C11   D T2601     132.634 127.127 142.972  1.00 11.94     0.085 A 
HETATM   23  C12   D T2601     131.422 126.492 142.839  1.00  8.64     0.023 A 
HETATM   24  C13   D T2601     130.215 127.104 143.154  1.00  5.16     0.074 A 
HETATM   25  C14   D T2601     130.201 128.432 143.646  1.00  9.71     0.016 A 
HETATM   26  C15   D T2601     131.443 129.052 143.806  1.00  7.63     0.003 A 
HETATM   27  C16   D T2601     132.641 128.417 143.459  1.00  5.68     0.019 A 
BRANCH  24  28
HETATM   28  C25   D T2601     128.952 126.298 142.950  1.00  8.83     0.419 C 
HETATM   29  F26   D T2601     129.251 125.022 142.632  1.00 15.45    -0.166 F 
HETATM   30  F27   D T2601     128.245 126.299 144.089  1.00  6.64    -0.166 F 
HETATM   31  F28   D T2601     128.224 126.895 141.989  1.00 29.12    -0.166 F 
ENDBRANCH  24  28
BRANCH  25  32
HETATM   32  C17   D T2601     128.834 129.113 144.050  1.00 12.70     0.051 C 
BRANCH  32  33
HETATM   33  N18   D T2601     128.324 130.117 143.321  1.00 13.52    -0.228 NA
HETATM   34  C19   D T2601     128.508 131.252 143.931  1.00 14.71     0.099 C 
HETATM   35  C20   D T2601     128.022 132.486 143.156  1.00  4.84     0.095 C 
HETATM   36  N21   D T2601     128.518 132.464 141.945  1.00  2.05    -0.248 NA
HETATM   37  C22   D T2601     128.073 131.367 141.436  1.00  7.08     0.060 C 
HETATM   38  C24   D T2601     128.060 133.457 141.248  1.00  7.31     0.094 C 
HETATM   39  C23   D T2601     128.734 130.186 142.113  1.00 11.65     0.063 C 
ENDBRANCH  32  33
ENDBRANCH  25  32
ENDBRANCH   1  22
TORSDOF 7
ENDMDL
MODEL 8
REMARK VINA RESULT:      -8.0      4.381     12.039
REMARK  7 active torsions:
REMARK  status: ('A' for Active; 'I' for Inactive)
REMARK    1  A    between atoms: C13_1  and  C25_22 
REMARK    2  A    between atoms: C17_3  and  C14_7 
REMARK    3  A    between atoms: C17_3  and  N18_34 
REMARK    4  A    between atoms: C11_5  and  N10_10 
REMARK       I    between atoms: N10_10  and  C08_18 
REMARK    5  A    between atoms: C03_13  and  C29_23 
REMARK    6  A    between atoms: C05_15  and  C08_18 
REMARK    7  A    between atoms: C30_24  and  C31_25 
ROOT
HETATM    1  N10   D T2601     135.253 125.493 140.691  1.00 11.81    -0.208 NA
HETATM    2  C08   D T2601     134.698 126.620 141.444  1.00  5.67     0.279 C 
HETATM    3  O09   D T2601     135.307 127.573 141.691  1.00  9.79    -0.265 OA
ENDROOT
BRANCH   2   4
HETATM    4  C05   D T2601     133.262 126.668 141.949  1.00  3.60     0.059 A 
HETATM    5  C04   D T2601     132.613 127.866 141.823  1.00  5.11     0.013 A 
HETATM    6  C03   D T2601     131.319 127.951 142.248  1.00  7.74     0.038 A 
HETATM    7  C02   D T2601     130.666 126.876 142.789  1.00  9.17    -0.014 A 
HETATM    8  C01   D T2601     129.233 127.023 143.251  1.00 11.30     0.032 C 
HETATM    9  C07   D T2601     131.318 125.676 142.906  1.00 16.89    -0.004 A 
HETATM   10  C06   D T2601     132.628 125.569 142.477  1.00 11.92     0.004 A 
BRANCH   6  11
HETATM   11  C29   D T2601     130.579 129.260 142.129  1.00  7.67    -0.060 C 
HETATM   12  C30   D T2601     130.002 130.281 142.052  1.00  4.53    -0.058 C 
BRANCH  12  13
HETATM   13  C31   D T2601     129.275 131.606 141.964  1.00  1.76     0.061 A 
HETATM   14  C32   D T2601     129.136 132.285 140.787  1.00  3.61     0.015 A 
HETATM   15  C33   D T2601     128.482 133.432 140.854  1.00  5.57     0.059 A 
HETATM   16  C34   D T2601     127.955 133.931 142.050  1.00  6.17     0.185 A 
HETATM   17  C37   D T2601     128.066 134.488 139.985  1.00  9.96     0.125 A 
HETATM   18  N35   D T2601     127.370 135.136 141.592  1.00  3.26    -0.129 NA
HETATM   19  N38   D T2601     128.076 133.308 143.192  1.00 12.99    -0.223 NA
HETATM   20  N36   D T2601     127.417 135.500 140.350  1.00  6.50    -0.145 NA
HETATM   21  C39   D T2601     128.743 132.120 143.167  1.00  5.57     0.109 A 
ENDBRANCH  12  13
ENDBRANCH   6  11
ENDBRANCH   2   4
BRANCH   1  22
HETATM   22  C11   D T2601     136.656 125.482 140.200  1.00 11.94     0.085 A 
HETATM   23  C12   D T2601     137.652 124.922 140.964  1.00  8.64     0.023 A 
HETATM   24  C13   D T2601     138.982 124.894 140.560  1.00  5.16     0.074 A 
HETATM   25  C14   D T2601     139.355 125.446 139.310  1.00  9.71     0.016 A 
HETATM   26  C15   D T2601     138.325 125.982 138.531  1.00  7.63     0.003 A 
HETATM   27  C16   D T2601     136.998 126.015 138.975  1.00  5.68     0.019 A 
BRANCH  24  28
HETATM   28  C25   D T2601     139.982 124.261 141.501  1.00  8.83     0.419 C 
HETATM   29  F26   D T2601     140.908 125.163 141.883  1.00 15.45    -0.166 F 
HETATM   30  F27   D T2601     139.338 123.823 142.592  1.00  6.64    -0.166 F 
HETATM   31  F28   D T2601     140.538 123.208 140.876  1.00 29.12    -0.166 F 
ENDBRANCH  24  28
BRANCH  25  32
HETATM   32  C17   D T2601     140.857 125.373 138.828  1.00 12.70     0.051 C 
BRANCH  32  33
HETATM   33  N18   D T2601     141.596 126.487 138.707  1.00 13.52    -0.228 NA
HETATM   34  C19   D T2601     141.621 126.875 137.466  1.00 14.71     0.099 C 
HETATM   35  C20   D T2601     142.386 128.184 137.216  1.00  4.84     0.095 C 
HETATM   36  N21   D T2601     141.953 129.106 138.038  1.00  2.05    -0.248 NA
HETATM   37  C22   D T2601     142.187 128.626 139.211  1.00  7.08     0.060 C 
HETATM   38  C24   D T2601     142.637 130.198 137.897  1.00  7.31     0.094 C 
HETATM   39  C23   D T2601     141.265 127.454 139.474  1.00 11.65     0.063 C 
ENDBRANCH  32  33
ENDBRANCH  25  32
ENDBRANCH   1  22
TORSDOF 7
ENDMDL
MODEL 9
REMARK VINA RESULT:      -7.9      7.352     11.808
REMARK  7 active torsions:
REMARK  status: ('A' for Active; 'I' for Inactive)
REMARK    1  A    between atoms: C13_1  and  C25_22 
REMARK    2  A    between atoms: C17_3  and  C14_7 
REMARK    3  A    between atoms: C17_3  and  N18_34 
REMARK    4  A    between atoms: C11_5  and  N10_10 
REMARK       I    between atoms: N10_10  and  C08_18 
REMARK    5  A    between atoms: C03_13  and  C29_23 
REMARK    6  A    between atoms: C05_15  and  C08_18 
REMARK    7  A    between atoms: C30_24  and  C31_25 
ROOT
HETATM    1  N10   D T2601     134.307 129.413 136.026  1.00 11.81    -0.208 NA
HETATM    2  C08   D T2601     133.532 128.180 136.193  1.00  5.67     0.279 C 
HETATM    3  O09   D T2601     132.945 127.683 135.327  1.00  9.79    -0.265 OA
ENDROOT
BRANCH   2   4
HETATM    4  C05   D T2601     133.444 127.414 137.507  1.00  3.60     0.059 A 
HETATM    5  C04   D T2601     134.627 126.971 138.032  1.00  5.11     0.013 A 
HETATM    6  C03   D T2601     134.598 126.294 139.216  1.00  7.74     0.038 A 
HETATM    7  C02   D T2601     133.425 126.053 139.881  1.00  9.17    -0.014 A 
HETATM    8  C01   D T2601     133.445 125.291 141.187  1.00 11.30     0.032 C 
HETATM    9  C07   D T2601     132.243 126.505 139.353  1.00 16.89    -0.004 A 
HETATM   10  C06   D T2601     132.253 127.198 138.156  1.00 11.92     0.004 A 
BRANCH   6  11
HETATM   11  C29   D T2601     135.885 125.786 139.818  1.00  7.67    -0.060 C 
HETATM   12  C30   D T2601     136.888 125.402 140.297  1.00  4.53    -0.058 C 
BRANCH  12  13
HETATM   13  C31   D T2601     138.168 124.903 140.932  1.00  1.76     0.061 A 
HETATM   14  C32   D T2601     138.314 123.617 141.366  1.00  3.61     0.015 A 
HETATM   15  C33   D T2601     139.482 123.317 141.906  1.00  5.57     0.059 A 
HETATM   16  C34   D T2601     140.518 124.249 142.029  1.00  6.17     0.185 A 
HETATM   17  C37   D T2601     140.144 122.191 142.488  1.00  9.96     0.125 A 
HETATM   18  N35   D T2601     141.513 123.451 142.642  1.00  3.26    -0.129 NA
HETATM   19  N38   D T2601     140.407 125.488 141.628  1.00 12.99    -0.223 NA
HETATM   20  N36   D T2601     141.320 122.203 142.930  1.00  6.50    -0.145 NA
HETATM   21  C39   D T2601     139.218 125.839 141.065  1.00  5.57     0.109 A 
ENDBRANCH  12  13
ENDBRANCH   6  11
ENDBRANCH   2   4
BRANCH   1  22
HETATM   22  C11   D T2601     134.383 130.130 134.727  1.00 11.94     0.085 A 
HETATM   23  C12   D T2601     135.270 129.721 133.761  1.00  8.64     0.023 A 
HETATM   24  C13   D T2601     135.392 130.360 132.533  1.00  5.16     0.074 A 
HETATM   25  C14   D T2601     134.573 131.477 132.231  1.00  9.71     0.016 A 
HETATM   26  C15   D T2601     133.654 131.860 133.211  1.00  7.63     0.003 A 
HETATM   27  C16   D T2601     133.570 131.209 134.448  1.00  5.68     0.019 A 
BRANCH  24  28
HETATM   28  C25   D T2601     136.417 129.817 131.563  1.00  8.83     0.419 C 
HETATM   29  F26   D T2601     137.517 130.597 131.552  1.00 15.45    -0.166 F 
HETATM   30  F27   D T2601     136.774 128.584 131.951  1.00  6.64    -0.166 F 
HETATM   31  F28   D T2601     135.846 129.740 130.348  1.00 29.12    -0.166 F 
ENDBRANCH  24  28
BRANCH  25  32
HETATM   32  C17   D T2601     134.677 132.176 130.819  1.00 12.70     0.051 C 
BRANCH  32  33
HETATM   33  N18   D T2601     135.499 133.219 130.626  1.00 13.52    -0.228 NA
HETATM   34  C19   D T2601     135.774 133.788 131.764  1.00 14.71     0.099 C 
HETATM   35  C20   D T2601     136.764 134.960 131.675  1.00  4.84     0.095 C 
HETATM   36  N21   D T2601     137.829 134.582 131.014  1.00  2.05    -0.248 NA
HETATM   37  C22   D T2601     137.382 134.237 129.856  1.00  7.08     0.060 C 
HETATM   38  C24   D T2601     138.645 135.577 130.860  1.00  7.31     0.094 C 
HETATM   39  C23   D T2601     136.571 132.965 129.980  1.00 11.65     0.063 C 
ENDBRANCH  32  33
ENDBRANCH  25  32
ENDBRANCH   1  22
TORSDOF 7
ENDMDL
