MODEL 1
REMARK VINA RESULT:    -8.659      0.000      0.000
REMARK INTER + INTRA:         -13.125
REMARK INTER:                 -12.202
REMARK INTRA:                  -0.923
REMARK UNBOUND:                -0.923
REMARK  7 active torsions:
REMARK  status: ('A' for Active; 'I' for Inactive)
REMARK    1  A    between atoms: C13_1  and  C25_22 
REMARK    2  A    between atoms: C17_3  and  C14_7 
REMARK    3  A    between atoms: C17_3  and  N18_34 
REMARK    4  A    between atoms: C11_5  and  N10_10 
REMARK       I    between atoms: N10_10  and  C08_18 
REMARK    5  A    between atoms: C03_13  and  C29_23 
REMARK    6  A    between atoms: C05_15  and  C08_18 
REMARK    7  A    between atoms: C30_24  and  C31_25 
ROOT
HETATM    1  N10   D T2601     132.141 126.463 144.171  1.00  8.06    -0.208 NA
HETATM    2  C08   D T2601     132.801 125.539 145.099  1.00  2.47     0.279 C 
HETATM    3  O09   D T2601     132.241 125.152 146.060  1.00 18.20    -0.265 OA
ENDROOT
BRANCH   2   4
HETATM    4  C05   D T2601     134.236 125.031 144.841  1.00 10.54     0.059 A 
HETATM    5  C04   D T2601     134.979 125.624 143.835  1.00 11.07     0.013 A 
HETATM    6  C03   D T2601     136.268 125.198 143.591  1.00  8.29     0.038 A 
HETATM    7  C02   D T2601     136.832 124.187 144.352  1.00  6.21    -0.014 A 
HETATM    8  C01   D T2601     138.252 123.725 144.071  1.00 12.09     0.032 C 
HETATM    9  C07   D T2601     136.092 123.595 145.362  1.00 18.64    -0.004 A 
HETATM   10  C06   D T2601     134.791 124.020 145.611  1.00 27.97     0.004 A 
BRANCH   6  11
HETATM   11  C29   D T2601     137.045 125.878 142.464  1.00 10.14    -0.060 C 
HETATM   12  C30   D T2601     137.634 126.416 141.581  1.00 12.27    -0.058 C 
BRANCH  12  13
HETATM   13  C31   D T2601     138.381 127.119 140.441  1.00 14.65     0.061 A 
HETATM   14  C32   D T2601     138.588 128.485 140.467  1.00 20.27     0.015 A 
HETATM   15  C33   D T2601     139.242 129.025 139.444  1.00 16.21     0.059 A 
HETATM   16  C34   D T2601     139.721 128.243 138.354  1.00 17.93     0.185 A 
HETATM   17  C37   D T2601     139.686 130.332 139.032  1.00 19.98     0.125 A 
HETATM   18  N35   D T2601     140.326 129.268 137.570  1.00 17.12    -0.129 NA
HETATM   19  N38   D T2601     139.548 126.929 138.281  1.00 17.86    -0.223 NA
HETATM   20  N36   D T2601     140.320 130.522 137.949  1.00 18.25    -0.145 NA
HETATM   21  C39   D T2601     138.869 126.350 139.337  1.00 12.87     0.109 A 
ENDBRANCH  12  13
ENDBRANCH   6  11
ENDBRANCH   2   4
BRANCH   1  22
HETATM   22  C11   D T2601     130.750 126.923 144.431  1.00 14.61     0.085 A 
HETATM   23  C12   D T2601     129.654 126.315 143.825  1.00 15.90     0.023 A 
HETATM   24  C13   D T2601     128.332 126.752 144.058  1.00  0.00     0.071 A 
HETATM   25  C14   D T2601     128.112 127.844 144.953  1.00 15.61     0.015 A 
HETATM   26  C15   D T2601     129.228 128.432 145.548  1.00 19.64    -0.001 A 
HETATM   27  C16   D T2601     130.532 127.985 145.294  1.00 12.94     0.019 A 
BRANCH  24  28
HETATM   28  C25   D T2601     127.182 126.028 143.351  1.00 12.85     0.419 C 
HETATM   29  F26   D T2601     126.504 126.894 142.549  1.00 14.34    -0.166 F 
HETATM   30  F27   D T2601     127.697 125.033 142.578  1.00 19.86    -0.166 F 
HETATM   31  F28   D T2601     126.339 125.496 144.282  1.00 33.27    -0.166 F 
ENDBRANCH  24  28
BRANCH  25  32
HETATM   32  C17   D T2601     126.668 128.388 145.273  1.00 22.96     0.277 C 
BRANCH  32  33
HETATM   33  N18   D T2601     126.723 129.371 146.176  1.00 28.73     0.146 N 
HETATM   34  C19   D T2601     126.138 128.982 147.286  1.00 11.84     0.286 C 
HETATM   35  C20   D T2601     125.619 130.108 148.199  1.00 15.66     0.286 C 
HETATM   36  N21   D T2601     126.217 131.244 147.889  1.00  6.09     0.143 N 
HETATM   37  C22   D T2601     125.876 131.570 146.664  1.00  9.54     0.286 C 
HETATM   38  C24   D T2601     125.833 132.178 148.707  1.00  8.86     0.285 C 
HETATM   39  C23   D T2601     126.291 130.490 145.661  1.00 19.33     0.286 C 
ENDBRANCH  32  33
ENDBRANCH  25  32
ENDBRANCH   1  22
TORSDOF 7
ENDMDL
MODEL 2
REMARK VINA RESULT:    -8.549      2.088      2.644
REMARK INTER + INTRA:         -12.971
REMARK INTER:                 -12.716
REMARK INTRA:                  -0.255
REMARK UNBOUND:                -0.923
REMARK  7 active torsions:
REMARK  status: ('A' for Active; 'I' for Inactive)
REMARK    1  A    between atoms: C13_1  and  C25_22 
REMARK    2  A    between atoms: C17_3  and  C14_7 
REMARK    3  A    between atoms: C17_3  and  N18_34 
REMARK    4  A    between atoms: C11_5  and  N10_10 
REMARK       I    between atoms: N10_10  and  C08_18 
REMARK    5  A    between atoms: C03_13  and  C29_23 
REMARK    6  A    between atoms: C05_15  and  C08_18 
REMARK    7  A    between atoms: C30_24  and  C31_25 
ROOT
HETATM    1  N10   D T2601     131.602 126.970 144.210  1.00  8.06    -0.208 NA
HETATM    2  C08   D T2601     132.302 126.205 145.247  1.00  2.47     0.279 C 
HETATM    3  O09   D T2601     131.875 126.153 146.344  1.00 18.20    -0.265 OA
ENDROOT
BRANCH   2   4
HETATM    4  C05   D T2601     133.601 125.432 144.936  1.00 10.54     0.059 A 
HETATM    5  C04   D T2601     134.449 125.926 143.960  1.00 11.07     0.013 A 
HETATM    6  C03   D T2601     135.622 125.262 143.669  1.00  8.29     0.038 A 
HETATM    7  C02   D T2601     135.967 124.109 144.355  1.00  6.21    -0.014 A 
HETATM    8  C01   D T2601     137.263 123.385 144.024  1.00 12.09     0.032 C 
HETATM    9  C07   D T2601     135.123 123.615 145.336  1.00 18.64    -0.004 A 
HETATM   10  C06   D T2601     133.938 124.280 145.631  1.00 27.97     0.004 A 
BRANCH   6  11
HETATM   11  C29   D T2601     136.521 125.841 142.577  1.00 10.14    -0.060 C 
HETATM   12  C30   D T2601     137.207 126.304 141.723  1.00 12.27    -0.058 C 
BRANCH  12  13
HETATM   13  C31   D T2601     138.081 126.913 140.619  1.00 14.65     0.061 A 
HETATM   14  C32   D T2601     138.380 128.262 140.617  1.00 20.27     0.015 A 
HETATM   15  C33   D T2601     139.142 128.720 139.628  1.00 16.21     0.059 A 
HETATM   16  C34   D T2601     139.642 127.867 138.602  1.00 17.93     0.185 A 
HETATM   17  C37   D T2601     139.704 129.978 139.209  1.00 19.98     0.125 A 
HETATM   18  N35   D T2601     140.372 128.820 137.833  1.00 17.12    -0.129 NA
HETATM   19  N38   D T2601     139.384 126.566 138.558  1.00 17.86    -0.223 NA
HETATM   20  N36   D T2601     140.426 130.085 138.171  1.00 18.25    -0.145 NA
HETATM   21  C39   D T2601     138.592 126.074 139.579  1.00 12.87     0.109 A 
ENDBRANCH  12  13
ENDBRANCH   6  11
ENDBRANCH   2   4
BRANCH   1  22
HETATM   22  C11   D T2601     130.340 127.691 144.530  1.00 14.61     0.085 A 
HETATM   23  C12   D T2601     130.345 129.014 144.964  1.00 15.90     0.023 A 
HETATM   24  C13   D T2601     129.154 129.703 145.279  1.00  0.00     0.071 A 
HETATM   25  C14   D T2601     127.904 129.024 145.138  1.00 15.61     0.015 A 
HETATM   26  C15   D T2601     127.930 127.700 144.700  1.00 19.64    -0.001 A 
HETATM   27  C16   D T2601     129.127 127.035 144.400  1.00 12.94     0.019 A 
BRANCH  24  28
HETATM   28  C25   D T2601     129.247 131.158 145.750  1.00 12.85     0.419 C 
HETATM   29  F26   D T2601     128.985 131.238 147.083  1.00 14.34    -0.166 F 
HETATM   30  F27   D T2601     130.510 131.613 145.527  1.00 19.86    -0.166 F 
HETATM   31  F28   D T2601     128.354 131.918 145.052  1.00 33.27    -0.166 F 
ENDBRANCH  24  28
BRANCH  25  32
HETATM   32  C17   D T2601     126.529 129.722 145.462  1.00 22.96     0.277 C 
BRANCH  32  33
HETATM   33  N18   D T2601     126.120 129.411 146.695  1.00 28.73     0.146 N 
HETATM   34  C19   D T2601     125.826 130.511 147.351  1.00 11.84     0.286 C 
HETATM   35  C20   D T2601     125.881 130.410 148.887  1.00 15.66     0.286 C 
HETATM   36  N21   D T2601     125.818 129.143 149.252  1.00  6.09     0.143 N 
HETATM   37  C22   D T2601     126.887 128.528 148.799  1.00  9.54     0.286 C 
HETATM   38  C24   D T2601     125.791 129.062 150.549  1.00  8.86     0.285 C 
HETATM   39  C23   D T2601     126.975 128.611 147.273  1.00 19.33     0.286 C 
ENDBRANCH  32  33
ENDBRANCH  25  32
ENDBRANCH   1  22
TORSDOF 7
ENDMDL
MODEL 3
REMARK VINA RESULT:    -8.529      6.842      9.705
REMARK INTER + INTRA:         -12.941
REMARK INTER:                 -12.145
REMARK INTRA:                  -0.797
REMARK UNBOUND:                -0.923
REMARK  7 active torsions:
REMARK  status: ('A' for Active; 'I' for Inactive)
REMARK    1  A    between atoms: C13_1  and  C25_22 
REMARK    2  A    between atoms: C17_3  and  C14_7 
REMARK    3  A    between atoms: C17_3  and  N18_34 
REMARK    4  A    between atoms: C11_5  and  N10_10 
REMARK       I    between atoms: N10_10  and  C08_18 
REMARK    5  A    between atoms: C03_13  and  C29_23 
REMARK    6  A    between atoms: C05_15  and  C08_18 
REMARK    7  A    between atoms: C30_24  and  C31_25 
ROOT
HETATM    1  N10   D T2601     132.325 128.416 140.473  1.00  8.06    -0.208 NA
HETATM    2  C08   D T2601     131.892 128.165 139.095  1.00  2.47     0.279 C 
HETATM    3  O09   D T2601     132.065 127.113 138.594  1.00 18.20    -0.265 OA
ENDROOT
BRANCH   2   4
HETATM    4  C05   D T2601     131.185 129.258 138.264  1.00 10.54     0.059 A 
HETATM    5  C04   D T2601     131.910 129.926 137.294  1.00 11.07     0.013 A 
HETATM    6  C03   D T2601     131.301 130.899 136.529  1.00  8.29     0.038 A 
HETATM    7  C02   D T2601     129.963 131.206 136.715  1.00  6.21    -0.014 A 
HETATM    8  C01   D T2601     129.303 132.281 135.867  1.00 12.09     0.032 C 
HETATM    9  C07   D T2601     129.233 130.535 137.683  1.00 18.64    -0.004 A 
HETATM   10  C06   D T2601     129.844 129.554 138.457  1.00 27.97     0.004 A 
BRANCH   6  11
HETATM   11  C29   D T2601     132.146 131.616 135.476  1.00 10.14    -0.060 C 
HETATM   12  C30   D T2601     132.813 132.182 134.670  1.00 12.27    -0.058 C 
BRANCH  12  13
HETATM   13  C31   D T2601     133.683 132.918 133.643  1.00 14.65     0.061 A 
HETATM   14  C32   D T2601     133.754 132.480 132.334  1.00 20.27     0.015 A 
HETATM   15  C33   D T2601     134.528 133.166 131.500  1.00 16.21     0.059 A 
HETATM   16  C34   D T2601     135.264 134.312 131.919  1.00 17.93     0.185 A 
HETATM   17  C37   D T2601     134.911 133.113 130.112  1.00 19.98     0.125 A 
HETATM   18  N35   D T2601     135.896 134.655 130.689  1.00 17.12    -0.129 NA
HETATM   19  N38   D T2601     135.231 134.772 133.164  1.00 17.86    -0.223 NA
HETATM   20  N36   D T2601     135.704 133.959 129.595  1.00 18.25    -0.145 NA
HETATM   21  C39   D T2601     134.430 134.070 134.045  1.00 12.87     0.109 A 
ENDBRANCH  12  13
ENDBRANCH   6  11
ENDBRANCH   2   4
BRANCH   1  22
HETATM   22  C11   D T2601     132.987 127.340 141.260  1.00 14.61     0.085 A 
HETATM   23  C12   D T2601     134.349 127.379 141.548  1.00 15.90     0.023 A 
HETATM   24  C13   D T2601     134.988 126.358 142.286  1.00  0.00     0.071 A 
HETATM   25  C14   D T2601     134.210 125.257 142.760  1.00 15.61     0.015 A 
HETATM   26  C15   D T2601     132.848 125.246 142.458  1.00 19.64    -0.001 A 
HETATM   27  C16   D T2601     132.238 126.268 141.717  1.00 12.94     0.019 A 
BRANCH  24  28
HETATM   28  C25   D T2601     136.490 126.478 142.560  1.00 12.85     0.419 C 
HETATM   29  F26   D T2601     137.130 125.341 142.172  1.00 14.34    -0.166 F 
HETATM   30  F27   D T2601     136.986 127.522 141.843  1.00 19.86    -0.166 F 
HETATM   31  F28   D T2601     136.692 126.697 143.892  1.00 33.27    -0.166 F 
ENDBRANCH  24  28
BRANCH  25  32
HETATM   32  C17   D T2601     134.842 124.081 143.595  1.00 22.96     0.277 C 
BRANCH  32  33
HETATM   33  N18   D T2601     134.776 124.341 144.904  1.00 28.73     0.146 N 
HETATM   34  C19   D T2601     135.863 123.901 145.496  1.00 11.84     0.286 C 
HETATM   35  C20   D T2601     135.733 123.607 147.002  1.00 15.66     0.286 C 
HETATM   36  N21   D T2601     134.678 124.234 147.488  1.00  6.09     0.143 N 
HETATM   37  C22   D T2601     133.604 123.738 146.917  1.00  9.54     0.286 C 
HETATM   38  C24   D T2601     134.610 124.045 148.772  1.00  8.86     0.285 C 
HETATM   39  C23   D T2601     133.644 123.919 145.397  1.00 19.33     0.286 C 
ENDBRANCH  32  33
ENDBRANCH  25  32
ENDBRANCH   1  22
TORSDOF 7
ENDMDL
MODEL 4
REMARK VINA RESULT:    -8.398      2.067      2.642
REMARK INTER + INTRA:         -12.758
REMARK INTER:                 -11.707
REMARK INTRA:                  -1.051
REMARK UNBOUND:                -0.923
REMARK  7 active torsions:
REMARK  status: ('A' for Active; 'I' for Inactive)
REMARK    1  A    between atoms: C13_1  and  C25_22 
REMARK    2  A    between atoms: C17_3  and  C14_7 
REMARK    3  A    between atoms: C17_3  and  N18_34 
REMARK    4  A    between atoms: C11_5  and  N10_10 
REMARK       I    between atoms: N10_10  and  C08_18 
REMARK    5  A    between atoms: C03_13  and  C29_23 
REMARK    6  A    between atoms: C05_15  and  C08_18 
REMARK    7  A    between atoms: C30_24  and  C31_25 
ROOT
HETATM    1  N10   D T2601     131.663 127.498 144.780  1.00  8.06    -0.208 NA
HETATM    2  C08   D T2601     131.771 126.159 144.191  1.00  2.47     0.279 C 
HETATM    3  O09   D T2601     130.812 125.597 143.801  1.00 18.20    -0.265 OA
ENDROOT
BRANCH   2   4
HETATM    4  C05   D T2601     133.137 125.453 144.048  1.00 10.54     0.059 A 
HETATM    5  C04   D T2601     134.035 125.933 143.111  1.00 11.07     0.013 A 
HETATM    6  C03   D T2601     135.267 125.329 142.969  1.00  8.29     0.038 A 
HETATM    7  C02   D T2601     135.619 124.251 143.765  1.00  6.21    -0.014 A 
HETATM    8  C01   D T2601     136.979 123.593 143.597  1.00 12.09     0.032 C 
HETATM    9  C07   D T2601     134.723 123.772 144.706  1.00 18.64    -0.004 A 
HETATM   10  C06   D T2601     133.479 124.377 144.852  1.00 27.97     0.004 A 
BRANCH   6  11
HETATM   11  C29   D T2601     136.222 125.889 141.914  1.00 10.14    -0.060 C 
HETATM   12  C30   D T2601     136.964 126.341 141.103  1.00 12.27    -0.058 C 
BRANCH  12  13
HETATM   13  C31   D T2601     137.922 126.938 140.064  1.00 14.65     0.061 A 
HETATM   14  C32   D T2601     137.988 128.303 139.865  1.00 20.27     0.015 A 
HETATM   15  C33   D T2601     138.841 128.748 138.947  1.00 16.21     0.059 A 
HETATM   16  C34   D T2601     139.664 127.867 138.188  1.00 17.93     0.185 A 
HETATM   17  C37   D T2601     139.257 130.015 138.402  1.00 19.98     0.125 A 
HETATM   18  N35   D T2601     140.360 128.818 137.387  1.00 17.12    -0.129 NA
HETATM   19  N38   D T2601     139.637 126.549 138.340  1.00 17.86    -0.223 NA
HETATM   20  N36   D T2601     140.138 130.106 137.493  1.00 18.25    -0.145 NA
HETATM   21  C39   D T2601     138.756 126.069 139.291  1.00 12.87     0.109 A 
ENDBRANCH  12  13
ENDBRANCH   6  11
ENDBRANCH   2   4
BRANCH   1  22
HETATM   22  C11   D T2601     130.337 128.166 144.890  1.00 14.61     0.085 A 
HETATM   23  C12   D T2601     129.507 127.964 145.989  1.00 15.90     0.023 A 
HETATM   24  C13   D T2601     128.243 128.586 146.097  1.00  0.00     0.071 A 
HETATM   25  C14   D T2601     127.810 129.457 145.051  1.00 15.61     0.015 A 
HETATM   26  C15   D T2601     128.663 129.642 143.963  1.00 19.64    -0.001 A 
HETATM   27  C16   D T2601     129.910 129.007 143.875  1.00 12.94     0.019 A 
BRANCH  24  28
HETATM   28  C25   D T2601     127.392 128.310 147.339  1.00 12.85     0.419 C 
HETATM   29  F26   D T2601     128.100 127.575 148.240  1.00 14.34    -0.166 F 
HETATM   30  F27   D T2601     127.056 129.496 147.915  1.00 19.86    -0.166 F 
HETATM   31  F28   D T2601     126.261 127.639 146.975  1.00 33.27    -0.166 F 
ENDBRANCH  24  28
BRANCH  25  32
HETATM   32  C17   D T2601     126.418 130.195 145.096  1.00 22.96     0.277 C 
BRANCH  32  33
HETATM   33  N18   D T2601     126.573 131.507 144.898  1.00 28.73     0.146 N 
HETATM   34  C19   D T2601     126.563 132.130 146.055  1.00 11.84     0.286 C 
HETATM   35  C20   D T2601     126.173 133.619 146.009  1.00 15.66     0.286 C 
HETATM   36  N21   D T2601     126.318 134.080 144.780  1.00  6.09     0.143 N 
HETATM   37  C22   D T2601     125.471 133.449 144.000  1.00  9.54     0.286 C 
HETATM   38  C24   D T2601     126.060 135.354 144.757  1.00  8.86     0.285 C 
HETATM   39  C23   D T2601     125.722 131.938 144.007  1.00 19.33     0.286 C 
ENDBRANCH  32  33
ENDBRANCH  25  32
ENDBRANCH   1  22
TORSDOF 7
ENDMDL
MODEL 5
REMARK VINA RESULT:    -8.210      4.071     12.792
REMARK INTER + INTRA:         -12.493
REMARK INTER:                 -11.441
REMARK INTRA:                  -1.051
REMARK UNBOUND:                -0.923
REMARK  7 active torsions:
REMARK  status: ('A' for Active; 'I' for Inactive)
REMARK    1  A    between atoms: C13_1  and  C25_22 
REMARK    2  A    between atoms: C17_3  and  C14_7 
REMARK    3  A    between atoms: C17_3  and  N18_34 
REMARK    4  A    between atoms: C11_5  and  N10_10 
REMARK       I    between atoms: N10_10  and  C08_18 
REMARK    5  A    between atoms: C03_13  and  C29_23 
REMARK    6  A    between atoms: C05_15  and  C08_18 
REMARK    7  A    between atoms: C30_24  and  C31_25 
ROOT
HETATM    1  N10   D T2601     131.713 127.251 143.173  1.00  8.06    -0.208 NA
HETATM    2  C08   D T2601     131.543 128.434 144.022  1.00  2.47     0.279 C 
HETATM    3  O09   D T2601     132.477 129.061 144.371  1.00 18.20    -0.265 OA
ENDROOT
BRANCH   2   4
HETATM    4  C05   D T2601     130.142 128.905 144.471  1.00 10.54     0.059 A 
HETATM    5  C04   D T2601     129.598 128.364 145.622  1.00 11.07     0.013 A 
HETATM    6  C03   D T2601     128.354 128.775 146.053  1.00  8.29     0.038 A 
HETATM    7  C02   D T2601     127.647 129.735 145.349  1.00  6.21    -0.014 A 
HETATM    8  C01   D T2601     126.276 130.179 145.833  1.00 12.09     0.032 C 
HETATM    9  C07   D T2601     128.192 130.282 144.198  1.00 18.64    -0.004 A 
HETATM   10  C06   D T2601     129.445 129.870 143.759  1.00 27.97     0.004 A 
BRANCH   6  11
HETATM   11  C29   D T2601     127.791 128.141 147.325  1.00 10.14    -0.060 C 
HETATM   12  C30   D T2601     127.356 127.631 148.307  1.00 12.27    -0.058 C 
BRANCH  12  13
HETATM   13  C31   D T2601     126.799 126.959 149.569  1.00 14.65     0.061 A 
HETATM   14  C32   D T2601     127.170 125.671 149.907  1.00 20.27     0.015 A 
HETATM   15  C33   D T2601     126.646 125.153 151.013  1.00 16.21     0.059 A 
HETATM   16  C34   D T2601     125.736 125.881 151.832  1.00 17.93     0.185 A 
HETATM   17  C37   D T2601     126.719 123.918 151.751  1.00 19.98     0.125 A 
HETATM   18  N35   D T2601     125.495 124.910 152.846  1.00 17.12    -0.129 NA
HETATM   19  N38   D T2601     125.347 127.119 151.551  1.00 17.86    -0.223 NA
HETATM   20  N36   D T2601     126.067 123.730 152.824  1.00 18.25    -0.145 NA
HETATM   21  C39   D T2601     125.882 127.673 150.403  1.00 12.87     0.109 A 
ENDBRANCH  12  13
ENDBRANCH   6  11
ENDBRANCH   2   4
BRANCH   1  22
HETATM   22  C11   D T2601     133.072 126.828 142.737  1.00 14.61     0.085 A 
HETATM   23  C12   D T2601     133.855 125.977 143.512  1.00 15.90     0.023 A 
HETATM   24  C13   D T2601     135.149 125.578 143.112  1.00  0.00     0.071 A 
HETATM   25  C14   D T2601     135.665 126.055 141.868  1.00 15.61     0.015 A 
HETATM   26  C15   D T2601     134.858 126.905 141.111  1.00 19.64    -0.001 A 
HETATM   27  C16   D T2601     133.579 127.292 141.534  1.00 12.94     0.019 A 
BRANCH  24  28
HETATM   28  C25   D T2601     135.945 124.639 144.023  1.00 12.85     0.419 C 
HETATM   29  F26   D T2601     137.149 125.193 144.333  1.00 14.34    -0.166 F 
HETATM   30  F27   D T2601     135.246 124.445 145.174  1.00 19.86    -0.166 F 
HETATM   31  F28   D T2601     136.131 123.443 143.391  1.00 33.27    -0.166 F 
ENDBRANCH  24  28
BRANCH  25  32
HETATM   32  C17   D T2601     137.096 125.653 141.344  1.00 22.96     0.277 C 
BRANCH  32  33
HETATM   33  N18   D T2601     137.731 126.715 140.841  1.00 28.73     0.146 N 
HETATM   34  C19   D T2601     138.169 126.435 139.634  1.00 11.84     0.286 C 
HETATM   35  C20   D T2601     139.355 127.283 139.139  1.00 15.66     0.286 C 
HETATM   36  N21   D T2601     139.441 128.389 139.854  1.00  6.09     0.143 N 
HETATM   37  C22   D T2601     139.712 128.058 141.096  1.00  9.54     0.286 C 
HETATM   38  C24   D T2601     140.397 129.138 139.389  1.00  8.86     0.285 C 
HETATM   39  C23   D T2601     138.622 127.158 141.685  1.00 19.33     0.286 C 
ENDBRANCH  32  33
ENDBRANCH  25  32
ENDBRANCH   1  22
TORSDOF 7
ENDMDL
MODEL 6
REMARK VINA RESULT:    -8.186      3.697     12.310
REMARK INTER + INTRA:         -12.459
REMARK INTER:                 -11.618
REMARK INTRA:                  -0.841
REMARK UNBOUND:                -0.923
REMARK  7 active torsions:
REMARK  status: ('A' for Active; 'I' for Inactive)
REMARK    1  A    between atoms: C13_1  and  C25_22 
REMARK    2  A    between atoms: C17_3  and  C14_7 
REMARK    3  A    between atoms: C17_3  and  N18_34 
REMARK    4  A    between atoms: C11_5  and  N10_10 
REMARK       I    between atoms: N10_10  and  C08_18 
REMARK    5  A    between atoms: C03_13  and  C29_23 
REMARK    6  A    between atoms: C05_15  and  C08_18 
REMARK    7  A    between atoms: C30_24  and  C31_25 
ROOT
HETATM    1  N10   D T2601     133.283 126.143 142.331  1.00  8.06    -0.208 NA
HETATM    2  C08   D T2601     132.540 127.282 142.877  1.00  2.47     0.279 C 
HETATM    3  O09   D T2601     133.072 128.320 143.048  1.00 18.20    -0.265 OA
ENDROOT
BRANCH   2   4
HETATM    4  C05   D T2601     131.040 127.169 143.229  1.00 10.54     0.059 A 
HETATM    5  C04   D T2601     130.371 128.304 143.652  1.00 11.07     0.013 A 
HETATM    6  C03   D T2601     129.029 128.235 143.962  1.00  8.29     0.038 A 
HETATM    7  C02   D T2601     128.339 127.040 143.841  1.00  6.21    -0.014 A 
HETATM    8  C01   D T2601     126.860 126.976 144.187  1.00 12.09     0.032 C 
HETATM    9  C07   D T2601     129.006 125.903 143.412  1.00 18.64    -0.004 A 
HETATM   10  C06   D T2601     130.359 125.968 143.101  1.00 27.97     0.004 A 
BRANCH   6  11
HETATM   11  C29   D T2601     128.336 129.513 144.434  1.00 10.14    -0.060 C 
HETATM   12  C30   D T2601     127.781 130.501 144.795  1.00 12.27    -0.058 C 
BRANCH  12  13
HETATM   13  C31   D T2601     127.052 131.770 145.255  1.00 14.65     0.061 A 
HETATM   14  C32   D T2601     127.082 132.920 144.490  1.00 20.27     0.015 A 
HETATM   15  C33   D T2601     126.429 133.981 144.952  1.00 16.21     0.059 A 
HETATM   16  C34   D T2601     125.718 133.953 146.186  1.00 17.93     0.185 A 
HETATM   17  C37   D T2601     126.172 135.338 144.542  1.00 19.98     0.125 A 
HETATM   18  N35   D T2601     125.219 135.288 146.206  1.00 17.12    -0.129 NA
HETATM   19  N38   D T2601     125.659 132.876 146.959  1.00 17.86    -0.223 NA
HETATM   20  N36   D T2601     125.473 136.136 145.239  1.00 18.25    -0.145 NA
HETATM   21  C39   D T2601     126.334 131.762 146.493  1.00 12.87     0.109 A 
ENDBRANCH  12  13
ENDBRANCH   6  11
ENDBRANCH   2   4
BRANCH   1  22
HETATM   22  C11   D T2601     134.723 126.283 141.982  1.00 14.61     0.085 A 
HETATM   23  C12   D T2601     135.728 125.819 142.828  1.00 15.90     0.023 A 
HETATM   24  C13   D T2601     137.097 125.956 142.509  1.00  0.00     0.071 A 
HETATM   25  C14   D T2601     137.460 126.580 141.276  1.00 15.61     0.015 A 
HETATM   26  C15   D T2601     136.433 127.033 140.448  1.00 19.64    -0.001 A 
HETATM   27  C16   D T2601     135.081 126.891 140.790  1.00 12.94     0.019 A 
BRANCH  24  28
HETATM   28  C25   D T2601     138.138 125.419 143.494  1.00 12.85     0.419 C 
HETATM   29  F26   D T2601     138.904 126.438 143.971  1.00 14.34    -0.166 F 
HETATM   30  F27   D T2601     137.495 124.833 144.540  1.00 19.86    -0.166 F 
HETATM   31  F28   D T2601     138.926 124.498 142.865  1.00 33.27    -0.166 F 
ENDBRANCH  24  28
BRANCH  25  32
HETATM   32  C17   D T2601     138.964 126.766 140.842  1.00 22.96     0.277 C 
BRANCH  32  33
HETATM   33  N18   D T2601     139.070 127.703 139.895  1.00 28.73     0.146 N 
HETATM   34  C19   D T2601     139.428 127.143 138.761  1.00 11.84     0.286 C 
HETATM   35  C20   D T2601     140.122 128.071 137.747  1.00 15.66     0.286 C 
HETATM   36  N21   D T2601     139.861 129.331 138.045  1.00  6.09     0.143 N 
HETATM   37  C22   D T2601     140.390 129.597 139.217  1.00  9.54     0.286 C 
HETATM   38  C24   D T2601     140.386 130.111 137.147  1.00  8.86     0.285 C 
HETATM   39  C23   D T2601     139.817 128.689 140.309  1.00 19.33     0.286 C 
ENDBRANCH  32  33
ENDBRANCH  25  32
ENDBRANCH   1  22
TORSDOF 7
ENDMDL
MODEL 7
REMARK VINA RESULT:    -8.021      6.261     10.628
REMARK INTER + INTRA:         -12.226
REMARK INTER:                 -11.282
REMARK INTRA:                  -0.944
REMARK UNBOUND:                -0.923
REMARK  7 active torsions:
REMARK  status: ('A' for Active; 'I' for Inactive)
REMARK    1  A    between atoms: C13_1  and  C25_22 
REMARK    2  A    between atoms: C17_3  and  C14_7 
REMARK    3  A    between atoms: C17_3  and  N18_34 
REMARK    4  A    between atoms: C11_5  and  N10_10 
REMARK       I    between atoms: N10_10  and  C08_18 
REMARK    5  A    between atoms: C03_13  and  C29_23 
REMARK    6  A    between atoms: C05_15  and  C08_18 
REMARK    7  A    between atoms: C30_24  and  C31_25 
ROOT
HETATM    1  N10   D T2601     130.463 128.489 144.385  1.00  8.06    -0.208 NA
HETATM    2  C08   D T2601     130.965 129.863 144.473  1.00  2.47     0.279 C 
HETATM    3  O09   D T2601     132.122 130.076 144.541  1.00 18.20    -0.265 OA
ENDROOT
BRANCH   2   4
HETATM    4  C05   D T2601     130.005 131.072 144.462  1.00 10.54     0.059 A 
HETATM    5  C04   D T2601     130.158 132.032 143.477  1.00 11.07     0.013 A 
HETATM    6  C03   D T2601     129.307 133.116 143.436  1.00  8.29     0.038 A 
HETATM    7  C02   D T2601     128.290 133.248 144.367  1.00  6.21    -0.014 A 
HETATM    8  C01   D T2601     127.359 134.449 144.312  1.00 12.09     0.032 C 
HETATM    9  C07   D T2601     128.131 132.286 145.351  1.00 18.64    -0.004 A 
HETATM   10  C06   D T2601     128.988 131.192 145.397  1.00 27.97     0.004 A 
BRANCH   6  11
HETATM   11  C29   D T2601     129.522 134.154 142.335  1.00 10.14    -0.060 C 
HETATM   12  C30   D T2601     129.693 134.975 141.492  1.00 12.27    -0.058 C 
BRANCH  12  13
HETATM   13  C31   D T2601     129.917 136.044 140.414  1.00 14.65     0.061 A 
HETATM   14  C32   D T2601     129.196 137.223 140.428  1.00 20.27     0.015 A 
HETATM   15  C33   D T2601     129.442 138.103 139.462  1.00 16.21     0.059 A 
HETATM   16  C34   D T2601     130.409 137.858 138.444  1.00 17.93     0.185 A 
HETATM   17  C37   D T2601     128.980 139.408 139.064  1.00 19.98     0.125 A 
HETATM   18  N35   D T2601     130.285 139.067 137.700  1.00 17.12    -0.129 NA
HETATM   19  N38   D T2601     131.126 136.743 138.386  1.00 17.86    -0.223 NA
HETATM   20  N36   D T2601     129.441 140.009 138.046  1.00 18.25    -0.145 NA
HETATM   21  C39   D T2601     130.882 135.817 139.383  1.00 12.87     0.109 A 
ENDBRANCH  12  13
ENDBRANCH   6  11
ENDBRANCH   2   4
BRANCH   1  22
HETATM   22  C11   D T2601     131.410 127.341 144.378  1.00 14.61     0.085 A 
HETATM   23  C12   D T2601     131.758 126.674 145.549  1.00 15.90     0.023 A 
HETATM   24  C13   D T2601     132.664 125.590 145.553  1.00  0.00     0.071 A 
HETATM   25  C14   D T2601     133.232 125.160 144.315  1.00 15.61     0.015 A 
HETATM   26  C15   D T2601     132.864 125.845 143.157  1.00 19.64    -0.001 A 
HETATM   27  C16   D T2601     131.968 126.923 143.180  1.00 12.94     0.019 A 
BRANCH  24  28
HETATM   28  C25   D T2601     132.992 124.911 146.886  1.00 12.85     0.419 C 
HETATM   29  F26   D T2601     132.124 125.324 147.850  1.00 14.34    -0.166 F 
HETATM   30  F27   D T2601     132.868 123.564 146.736  1.00 19.86    -0.166 F 
HETATM   31  F28   D T2601     134.272 125.217 147.248  1.00 33.27    -0.166 F 
ENDBRANCH  24  28
BRANCH  25  32
HETATM   32  C17   D T2601     134.244 123.955 144.231  1.00 22.96     0.277 C 
BRANCH  32  33
HETATM   33  N18   D T2601     135.503 124.387 144.348  1.00 28.73     0.146 N 
HETATM   34  C19   D T2601     136.028 124.544 143.154  1.00 11.84     0.286 C 
HETATM   35  C20   D T2601     137.565 124.487 143.085  1.00 15.66     0.286 C 
HETATM   36  N21   D T2601     138.072 124.697 144.287  1.00  6.09     0.143 N 
HETATM   37  C22   D T2601     137.697 123.712 145.071  1.00  9.54     0.286 C 
HETATM   38  C24   D T2601     139.370 124.721 144.216  1.00  8.86     0.285 C 
HETATM   39  C23   D T2601     136.172 123.628 145.173  1.00 19.33     0.286 C 
ENDBRANCH  32  33
ENDBRANCH  25  32
ENDBRANCH   1  22
TORSDOF 7
ENDMDL
MODEL 8
REMARK VINA RESULT:    -7.964      4.214     11.934
REMARK INTER + INTRA:         -12.145
REMARK INTER:                 -11.172
REMARK INTRA:                  -0.973
REMARK UNBOUND:                -0.923
REMARK  7 active torsions:
REMARK  status: ('A' for Active; 'I' for Inactive)
REMARK    1  A    between atoms: C13_1  and  C25_22 
REMARK    2  A    between atoms: C17_3  and  C14_7 
REMARK    3  A    between atoms: C17_3  and  N18_34 
REMARK    4  A    between atoms: C11_5  and  N10_10 
REMARK       I    between atoms: N10_10  and  C08_18 
REMARK    5  A    between atoms: C03_13  and  C29_23 
REMARK    6  A    between atoms: C05_15  and  C08_18 
REMARK    7  A    between atoms: C30_24  and  C31_25 
ROOT
HETATM    1  N10   D T2601     131.967 126.947 143.725  1.00  8.06    -0.208 NA
HETATM    2  C08   D T2601     131.733 128.296 144.250  1.00  2.47     0.279 C 
HETATM    3  O09   D T2601     132.584 129.111 144.209  1.00 18.20    -0.265 OA
ENDROOT
BRANCH   2   4
HETATM    4  C05   D T2601     130.370 128.698 144.852  1.00 10.54     0.059 A 
HETATM    5  C04   D T2601     129.843 129.937 144.531  1.00 11.07     0.013 A 
HETATM    6  C03   D T2601     128.621 130.318 145.046  1.00  8.29     0.038 A 
HETATM    7  C02   D T2601     127.910 129.466 145.874  1.00  6.21    -0.014 A 
HETATM    8  C01   D T2601     126.565 129.899 146.437  1.00 12.09     0.032 C 
HETATM    9  C07   D T2601     128.433 128.223 146.194  1.00 18.64    -0.004 A 
HETATM   10  C06   D T2601     129.665 127.836 145.678  1.00 27.97     0.004 A 
BRANCH   6  11
HETATM   11  C29   D T2601     128.085 131.699 144.670  1.00 10.14    -0.060 C 
HETATM   12  C30   D T2601     127.668 132.769 144.359  1.00 12.27    -0.058 C 
BRANCH  12  13
HETATM   13  C31   D T2601     127.127 134.143 143.944  1.00 14.65     0.061 A 
HETATM   14  C32   D T2601     126.522 134.973 144.868  1.00 20.27     0.015 A 
HETATM   15  C33   D T2601     126.077 136.149 144.436  1.00 16.21     0.059 A 
HETATM   16  C34   D T2601     126.210 136.556 143.078  1.00 17.93     0.185 A 
HETATM   17  C37   D T2601     125.412 137.305 144.983  1.00 19.98     0.125 A 
HETATM   18  N35   D T2601     125.599 137.841 143.151  1.00 17.12    -0.129 NA
HETATM   19  N38   D T2601     126.782 135.796 142.152  1.00 17.86    -0.223 NA
HETATM   20  N36   D T2601     125.114 138.314 144.273  1.00 18.25    -0.145 NA
HETATM   21  C39   D T2601     127.250 134.569 142.584  1.00 12.87     0.109 A 
ENDBRANCH  12  13
ENDBRANCH   6  11
ENDBRANCH   2   4
BRANCH   1  22
HETATM   22  C11   D T2601     133.284 126.590 143.131  1.00 14.61     0.085 A 
HETATM   23  C12   D T2601     134.168 125.730 143.778  1.00 15.90     0.023 A 
HETATM   24  C13   D T2601     135.423 125.393 143.227  1.00  0.00     0.071 A 
HETATM   25  C14   D T2601     135.792 125.942 141.961  1.00 15.61     0.015 A 
HETATM   26  C15   D T2601     134.887 126.799 141.334  1.00 19.64    -0.001 A 
HETATM   27  C16   D T2601     133.649 127.124 141.906  1.00 12.94     0.019 A 
BRANCH  24  28
HETATM   28  C25   D T2601     136.336 124.440 144.004  1.00 12.85     0.419 C 
HETATM   29  F26   D T2601     136.658 123.365 143.233  1.00 14.34    -0.166 F 
HETATM   30  F27   D T2601     137.481 125.097 144.333  1.00 19.86    -0.166 F 
HETATM   31  F28   D T2601     135.700 124.026 145.139  1.00 33.27    -0.166 F 
ENDBRANCH  24  28
BRANCH  25  32
HETATM   32  C17   D T2601     137.171 125.612 141.272  1.00 22.96     0.277 C 
BRANCH  32  33
HETATM   33  N18   D T2601     137.772 126.730 140.858  1.00 28.73     0.146 N 
HETATM   34  C19   D T2601     138.197 126.570 139.624  1.00 11.84     0.286 C 
HETATM   35  C20   D T2601     139.355 127.488 139.191  1.00 15.66     0.286 C 
HETATM   36  N21   D T2601     139.426 128.528 140.001  1.00  6.09     0.143 N 
HETATM   37  C22   D T2601     139.724 128.094 141.204  1.00  9.54     0.286 C 
HETATM   38  C24   D T2601     140.356 129.339 139.592  1.00  8.86     0.285 C 
HETATM   39  C23   D T2601     138.666 127.118 141.726  1.00 19.33     0.286 C 
ENDBRANCH  32  33
ENDBRANCH  25  32
ENDBRANCH   1  22
TORSDOF 7
ENDMDL
MODEL 9
REMARK VINA RESULT:    -7.774      3.561     12.431
REMARK INTER + INTRA:         -11.878
REMARK INTER:                 -11.745
REMARK INTRA:                  -0.133
REMARK UNBOUND:                -0.923
REMARK  7 active torsions:
REMARK  status: ('A' for Active; 'I' for Inactive)
REMARK    1  A    between atoms: C13_1  and  C25_22 
REMARK    2  A    between atoms: C17_3  and  C14_7 
REMARK    3  A    between atoms: C17_3  and  N18_34 
REMARK    4  A    between atoms: C11_5  and  N10_10 
REMARK       I    between atoms: N10_10  and  C08_18 
REMARK    5  A    between atoms: C03_13  and  C29_23 
REMARK    6  A    between atoms: C05_15  and  C08_18 
REMARK    7  A    between atoms: C30_24  and  C31_25 
ROOT
HETATM    1  N10   D T2601     132.856 127.966 141.766  1.00  8.06    -0.208 NA
HETATM    2  C08   D T2601     131.620 127.357 141.266  1.00  2.47     0.279 C 
HETATM    3  O09   D T2601     131.650 126.334 140.681  1.00 18.20    -0.265 OA
ENDROOT
BRANCH   2   4
HETATM    4  C05   D T2601     130.245 128.018 141.503  1.00 10.54     0.059 A 
HETATM    5  C04   D T2601     129.768 128.110 142.799  1.00 11.07     0.013 A 
HETATM    6  C03   D T2601     128.548 128.707 143.041  1.00  8.29     0.038 A 
HETATM    7  C02   D T2601     127.800 129.227 141.998  1.00  6.21    -0.014 A 
HETATM    8  C01   D T2601     126.456 129.880 142.278  1.00 12.09     0.032 C 
HETATM    9  C07   D T2601     128.277 129.140 140.700  1.00 18.64    -0.004 A 
HETATM   10  C06   D T2601     129.506 128.538 140.451  1.00 27.97     0.004 A 
BRANCH   6  11
HETATM   11  C29   D T2601     128.060 128.776 144.488  1.00 10.14    -0.060 C 
HETATM   12  C30   D T2601     127.688 128.847 145.615  1.00 12.27    -0.058 C 
BRANCH  12  13
HETATM   13  C31   D T2601     127.214 128.952 147.070  1.00 14.65     0.061 A 
HETATM   14  C32   D T2601     126.877 127.820 147.788  1.00 20.27     0.015 A 
HETATM   15  C33   D T2601     126.473 127.987 149.043  1.00 16.21     0.059 A 
HETATM   16  C34   D T2601     126.385 129.276 149.644  1.00 17.93     0.185 A 
HETATM   17  C37   D T2601     126.039 127.165 150.143  1.00 19.98     0.125 A 
HETATM   18  N35   D T2601     125.925 128.905 150.941  1.00 17.12    -0.129 NA
HETATM   19  N38   D T2601     126.695 130.393 148.998  1.00 17.86    -0.223 NA
HETATM   20  N36   D T2601     125.710 127.654 151.267  1.00 18.25    -0.145 NA
HETATM   21  C39   D T2601     127.117 130.237 147.691  1.00 12.87     0.109 A 
ENDBRANCH  12  13
ENDBRANCH   6  11
ENDBRANCH   2   4
BRANCH   1  22
HETATM   22  C11   D T2601     134.167 127.299 141.542  1.00 14.61     0.085 A 
HETATM   23  C12   D T2601     134.757 126.501 142.519  1.00 15.90     0.023 A 
HETATM   24  C13   D T2601     136.005 125.872 142.319  1.00  0.00     0.071 A 
HETATM   25  C14   D T2601     136.678 126.052 141.071  1.00 15.61     0.015 A 
HETATM   26  C15   D T2601     136.063 126.855 140.110  1.00 19.64    -0.001 A 
HETATM   27  C16   D T2601     134.826 127.475 140.336  1.00 12.94     0.019 A 
BRANCH  24  28
HETATM   28  C25   D T2601     136.584 125.010 143.445  1.00 12.85     0.419 C 
HETATM   29  F26   D T2601     137.781 125.513 143.853  1.00 14.34    -0.166 F 
HETATM   30  F27   D T2601     135.723 125.026 144.499  1.00 19.86    -0.166 F 
HETATM   31  F28   D T2601     136.744 123.730 143.000  1.00 33.27    -0.166 F 
ENDBRANCH  24  28
BRANCH  25  32
HETATM   32  C17   D T2601     138.070 125.380 140.764  1.00 22.96     0.277 C 
BRANCH  32  33
HETATM   33  N18   D T2601     138.993 126.308 140.497  1.00 28.73     0.146 N 
HETATM   34  C19   D T2601     138.931 127.263 141.398  1.00 11.84     0.286 C 
HETATM   35  C20   D T2601     139.493 128.629 140.964  1.00 15.66     0.286 C 
HETATM   36  N21   D T2601     140.292 128.472 139.925  1.00  6.09     0.143 N 
HETATM   37  C22   D T2601     139.577 128.027 138.917  1.00  9.54     0.286 C 
HETATM   38  C24   D T2601     140.824 129.615 139.605  1.00  8.86     0.285 C 
HETATM   39  C23   D T2601     138.913 126.689 139.251  1.00 19.33     0.286 C 
ENDBRANCH  32  33
ENDBRANCH  25  32
ENDBRANCH   1  22
TORSDOF 7
ENDMDL
