MODEL 1
REMARK VINA RESULT:      -8.6      0.000      0.000
REMARK  7 active torsions:
REMARK  status: ('A' for Active; 'I' for Inactive)
REMARK    1  A    between atoms: C13_1  and  C25_22 
REMARK    2  A    between atoms: C17_3  and  C14_7 
REMARK    3  A    between atoms: C17_3  and  N18_34 
REMARK    4  A    between atoms: C11_5  and  N10_10 
REMARK       I    between atoms: N10_10  and  C08_18 
REMARK    5  A    between atoms: C03_13  and  C29_23 
REMARK    6  A    between atoms: C05_15  and  C08_18 
REMARK    7  A    between atoms: C30_24  and  C31_25 
ROOT
HETATM    1  N10   D T2601     132.234 128.406 140.436  1.00  8.06    -0.208 NA
HETATM    2  C08   D T2601     131.805 128.154 139.058  1.00  2.47     0.279 C 
HETATM    3  O09   D T2601     131.968 127.097 138.563  1.00 18.20    -0.265 OA
ENDROOT
BRANCH   2   4
HETATM    4  C05   D T2601     131.111 129.249 138.219  1.00 10.54     0.059 A 
HETATM    5  C04   D T2601     131.862 129.946 137.288  1.00 11.07     0.013 A 
HETATM    6  C03   D T2601     131.265 130.922 136.517  1.00  8.29     0.038 A 
HETATM    7  C02   D T2601     129.916 131.203 136.657  1.00  6.21    -0.014 A 
HETATM    8  C01   D T2601     129.272 132.283 135.802  1.00 12.09     0.032 C 
HETATM    9  C07   D T2601     129.162 130.504 137.585  1.00 18.64    -0.004 A 
HETATM   10  C06   D T2601     129.759 129.520 138.365  1.00 27.97     0.004 A 
BRANCH   6  11
HETATM   11  C29   D T2601     132.138 131.671 135.510  1.00 10.14    -0.060 C 
HETATM   12  C30   D T2601     132.802 132.254 134.714  1.00 12.27    -0.058 C 
BRANCH  12  13
HETATM   13  C31   D T2601     133.646 133.009 133.680  1.00 14.65     0.061 A 
HETATM   14  C32   D T2601     133.786 132.526 132.393  1.00 20.27     0.015 A 
HETATM   15  C33   D T2601     134.534 133.232 131.551  1.00 16.21     0.059 A 
HETATM   16  C34   D T2601     135.174 134.444 131.941  1.00 17.93     0.185 A 
HETATM   17  C37   D T2601     134.959 133.152 130.177  1.00 19.98     0.125 A 
HETATM   18  N35   D T2601     135.815 134.782 130.714  1.00 17.12    -0.129 NA
HETATM   19  N38   D T2601     135.072 134.949 133.164  1.00 17.86    -0.223 NA
HETATM   20  N36   D T2601     135.705 134.031 129.646  1.00 18.25    -0.145 NA
HETATM   21  C39   D T2601     134.298 134.227 134.053  1.00 12.87     0.109 A 
ENDBRANCH  12  13
ENDBRANCH   6  11
ENDBRANCH   2   4
BRANCH   1  22
HETATM   22  C11   D T2601     132.883 127.329 141.231  1.00 14.61     0.085 A 
HETATM   23  C12   D T2601     134.245 127.353 141.520  1.00 15.90     0.023 A 
HETATM   24  C13   D T2601     134.871 126.329 142.265  1.00  0.00     0.071 A 
HETATM   25  C14   D T2601     134.079 125.242 142.746  1.00 15.61     0.015 A 
HETATM   26  C15   D T2601     132.717 125.244 142.443  1.00 19.64    -0.001 A 
HETATM   27  C16   D T2601     132.121 126.269 141.695  1.00 12.94     0.019 A 
BRANCH  24  28
HETATM   28  C25   D T2601     136.374 126.433 142.539  1.00 12.85     0.419 C 
HETATM   29  F26   D T2601     137.000 125.284 142.163  1.00 14.34    -0.166 F 
HETATM   30  F27   D T2601     136.884 127.464 141.812  1.00 19.86    -0.166 F 
HETATM   31  F28   D T2601     136.579 126.661 143.869  1.00 33.27    -0.166 F 
ENDBRANCH  24  28
BRANCH  25  32
HETATM   32  C17   D T2601     134.697 124.063 143.590  1.00 22.96     0.277 C 
BRANCH  32  33
HETATM   33  N18   D T2601     134.655 124.344 144.895  1.00 28.73     0.146 N 
HETATM   34  C19   D T2601     135.737 123.881 145.480  1.00 11.84     0.286 C 
HETATM   35  C20   D T2601     135.617 123.612 146.992  1.00 15.66     0.286 C 
HETATM   36  N21   D T2601     134.586 124.276 147.482  1.00  6.09     0.143 N 
HETATM   37  C22   D T2601     133.492 123.803 146.932  1.00  9.54     0.286 C 
HETATM   38  C24   D T2601     134.529 124.107 148.770  1.00  8.86     0.285 C 
HETATM   39  C23   D T2601     133.517 123.962 145.409  1.00 19.33     0.286 C 
ENDBRANCH  32  33
ENDBRANCH  25  32
ENDBRANCH   1  22
TORSDOF 7
ENDMDL
MODEL 2
REMARK VINA RESULT:      -8.2      5.507      6.827
REMARK  7 active torsions:
REMARK  status: ('A' for Active; 'I' for Inactive)
REMARK    1  A    between atoms: C13_1  and  C25_22 
REMARK    2  A    between atoms: C17_3  and  C14_7 
REMARK    3  A    between atoms: C17_3  and  N18_34 
REMARK    4  A    between atoms: C11_5  and  N10_10 
REMARK       I    between atoms: N10_10  and  C08_18 
REMARK    5  A    between atoms: C03_13  and  C29_23 
REMARK    6  A    between atoms: C05_15  and  C08_18 
REMARK    7  A    between atoms: C30_24  and  C31_25 
ROOT
HETATM    1  N10   D T2601     130.483 128.403 144.443  1.00  8.06    -0.208 NA
HETATM    2  C08   D T2601     130.995 129.776 144.491  1.00  2.47     0.279 C 
HETATM    3  O09   D T2601     132.154 129.983 144.520  1.00 18.20    -0.265 OA
ENDROOT
BRANCH   2   4
HETATM    4  C05   D T2601     130.040 130.990 144.487  1.00 10.54     0.059 A 
HETATM    5  C04   D T2601     130.213 131.966 143.521  1.00 11.07     0.013 A 
HETATM    6  C03   D T2601     129.368 133.055 143.486  1.00  8.29     0.038 A 
HETATM    7  C02   D T2601     128.338 133.177 144.404  1.00  6.21    -0.014 A 
HETATM    8  C01   D T2601     127.414 134.383 144.356  1.00 12.09     0.032 C 
HETATM    9  C07   D T2601     128.159 132.198 145.369  1.00 18.64    -0.004 A 
HETATM   10  C06   D T2601     129.010 131.099 145.409  1.00 27.97     0.004 A 
BRANCH   6  11
HETATM   11  C29   D T2601     129.605 134.111 142.407  1.00 10.14    -0.060 C 
HETATM   12  C30   D T2601     129.773 134.929 141.559  1.00 12.27    -0.058 C 
BRANCH  12  13
HETATM   13  C31   D T2601     129.976 135.980 140.460  1.00 14.65     0.061 A 
HETATM   14  C32   D T2601     129.272 137.169 140.481  1.00 20.27     0.015 A 
HETATM   15  C33   D T2601     129.499 138.032 139.496  1.00 16.21     0.059 A 
HETATM   16  C34   D T2601     130.427 137.760 138.450  1.00 17.93     0.185 A 
HETATM   17  C37   D T2601     129.042 139.338 139.095  1.00 19.98     0.125 A 
HETATM   18  N35   D T2601     130.295 138.960 137.693  1.00 17.12    -0.129 NA
HETATM   19  N38   D T2601     131.126 136.634 138.384  1.00 17.86    -0.223 NA
HETATM   20  N36   D T2601     129.477 139.919 138.054  1.00 18.25    -0.145 NA
HETATM   21  C39   D T2601     130.903 135.724 139.401  1.00 12.87     0.109 A 
ENDBRANCH  12  13
ENDBRANCH   6  11
ENDBRANCH   2   4
BRANCH   1  22
HETATM   22  C11   D T2601     131.424 127.251 144.428  1.00 14.61     0.085 A 
HETATM   23  C12   D T2601     131.776 126.580 145.597  1.00 15.90     0.023 A 
HETATM   24  C13   D T2601     132.675 125.492 145.593  1.00  0.00     0.071 A 
HETATM   25  C14   D T2601     133.232 125.059 144.351  1.00 15.61     0.015 A 
HETATM   26  C15   D T2601     132.860 125.747 143.196  1.00 19.64    -0.001 A 
HETATM   27  C16   D T2601     131.970 126.830 143.226  1.00 12.94     0.019 A 
BRANCH  24  28
HETATM   28  C25   D T2601     133.009 124.809 146.923  1.00 12.85     0.419 C 
HETATM   29  F26   D T2601     134.280 125.116 147.302  1.00 14.34    -0.166 F 
HETATM   30  F27   D T2601     132.151 125.260 147.878  1.00 19.86    -0.166 F 
HETATM   31  F28   D T2601     132.876 123.458 146.786  1.00 33.27    -0.166 F 
ENDBRANCH  24  28
BRANCH  25  32
HETATM   32  C17   D T2601     134.237 123.849 144.258  1.00 22.96     0.277 C 
BRANCH  32  33
HETATM   33  N18   D T2601     135.499 124.272 144.380  1.00 28.73     0.146 N 
HETATM   34  C19   D T2601     136.027 124.429 143.187  1.00 11.84     0.286 C 
HETATM   35  C20   D T2601     137.564 124.362 143.122  1.00 15.66     0.286 C 
HETATM   36  N21   D T2601     138.070 124.565 144.325  1.00  6.09     0.143 N 
HETATM   37  C22   D T2601     137.687 123.580 145.105  1.00  9.54     0.286 C 
HETATM   38  C24   D T2601     139.368 124.581 144.257  1.00  8.86     0.285 C 
HETATM   39  C23   D T2601     136.161 123.506 145.204  1.00 19.33     0.286 C 
ENDBRANCH  32  33
ENDBRANCH  25  32
ENDBRANCH   1  22
TORSDOF 7
ENDMDL
MODEL 3
REMARK VINA RESULT:      -7.9      3.317     12.521
REMARK  7 active torsions:
REMARK  status: ('A' for Active; 'I' for Inactive)
REMARK    1  A    between atoms: C13_1  and  C25_22 
REMARK    2  A    between atoms: C17_3  and  C14_7 
REMARK    3  A    between atoms: C17_3  and  N18_34 
REMARK    4  A    between atoms: C11_5  and  N10_10 
REMARK       I    between atoms: N10_10  and  C08_18 
REMARK    5  A    between atoms: C03_13  and  C29_23 
REMARK    6  A    between atoms: C05_15  and  C08_18 
REMARK    7  A    between atoms: C30_24  and  C31_25 
ROOT
HETATM    1  N10   D T2601     131.922 130.597 137.877  1.00  8.06    -0.208 NA
HETATM    2  C08   D T2601     130.900 129.551 137.987  1.00  2.47     0.279 C 
HETATM    3  O09   D T2601     130.259 129.239 137.049  1.00 18.20    -0.265 OA
ENDROOT
BRANCH   2   4
HETATM    4  C05   D T2601     130.644 128.816 139.320  1.00 10.54     0.059 A 
HETATM    5  C04   D T2601     131.686 128.112 139.899  1.00 11.07     0.013 A 
HETATM    6  C03   D T2601     131.488 127.455 141.096  1.00  8.29     0.038 A 
HETATM    7  C02   D T2601     130.259 127.503 141.731  1.00  6.21    -0.014 A 
HETATM    8  C01   D T2601     130.054 126.773 143.049  1.00 12.09     0.032 C 
HETATM    9  C07   D T2601     129.216 128.211 141.156  1.00 18.64    -0.004 A 
HETATM   10  C06   D T2601     129.410 128.874 139.949  1.00 27.97     0.004 A 
BRANCH   6  11
HETATM   11  C29   D T2601     132.666 126.683 141.691  1.00 10.14    -0.060 C 
HETATM   12  C30   D T2601     133.594 126.094 142.145  1.00 12.27    -0.058 C 
BRANCH  12  13
HETATM   13  C31   D T2601     134.801 125.344 142.724  1.00 14.65     0.061 A 
HETATM   14  C32   D T2601     134.681 124.598 143.881  1.00 20.27     0.015 A 
HETATM   15  C33   D T2601     135.768 123.976 144.325  1.00 16.21     0.059 A 
HETATM   16  C34   D T2601     137.018 124.062 143.647  1.00 17.93     0.185 A 
HETATM   17  C37   D T2601     136.135 123.121 145.425  1.00 19.98     0.125 A 
HETATM   18  N35   D T2601     137.812 123.244 144.502  1.00 17.12    -0.129 NA
HETATM   19  N38   D T2601     137.186 124.765 142.534  1.00 17.86    -0.223 NA
HETATM   20  N36   D T2601     137.312 122.670 145.569  1.00 18.25    -0.145 NA
HETATM   21  C39   D T2601     136.065 125.419 142.058  1.00 12.87     0.109 A 
ENDBRANCH  12  13
ENDBRANCH   6  11
ENDBRANCH   2   4
BRANCH   1  22
HETATM   22  C11   D T2601     132.163 131.278 136.575  1.00 14.61     0.085 A 
HETATM   23  C12   D T2601     132.910 130.678 135.565  1.00 15.90     0.023 A 
HETATM   24  C13   D T2601     133.153 131.321 134.331  1.00  0.00     0.071 A 
HETATM   25  C14   D T2601     132.605 132.622 134.110  1.00 15.61     0.015 A 
HETATM   26  C15   D T2601     131.859 133.197 135.139  1.00 19.64    -0.001 A 
HETATM   27  C16   D T2601     131.638 132.542 136.358  1.00 12.94     0.019 A 
BRANCH  24  28
HETATM   28  C25   D T2601     133.984 130.591 133.273  1.00 12.85     0.419 C 
HETATM   29  F26   D T2601     133.426 130.754 132.042  1.00 14.34    -0.166 F 
HETATM   30  F27   D T2601     135.238 131.120 133.255  1.00 19.86    -0.166 F 
HETATM   31  F28   D T2601     134.050 129.263 133.582  1.00 33.27    -0.166 F 
ENDBRANCH  24  28
BRANCH  25  32
HETATM   32  C17   D T2601     132.822 133.405 132.760  1.00 22.96     0.277 C 
BRANCH  32  33
HETATM   33  N18   D T2601     133.983 134.066 132.778  1.00 28.73     0.146 N 
HETATM   34  C19   D T2601     133.773 135.314 133.133  1.00 11.84     0.286 C 
HETATM   35  C20   D T2601     134.842 136.326 132.683  1.00 15.66     0.286 C 
HETATM   36  N21   D T2601     135.959 135.689 132.382  1.00  6.09     0.143 N 
HETATM   37  C22   D T2601     135.726 134.911 131.350  1.00  9.54     0.286 C 
HETATM   38  C24   D T2601     136.884 136.550 132.073  1.00  8.86     0.285 C 
HETATM   39  C23   D T2601     134.628 133.889 131.657  1.00 19.33     0.286 C 
ENDBRANCH  32  33
ENDBRANCH  25  32
ENDBRANCH   1  22
TORSDOF 7
ENDMDL
MODEL 4
REMARK VINA RESULT:      -7.8      3.276     12.541
REMARK  7 active torsions:
REMARK  status: ('A' for Active; 'I' for Inactive)
REMARK    1  A    between atoms: C13_1  and  C25_22 
REMARK    2  A    between atoms: C17_3  and  C14_7 
REMARK    3  A    between atoms: C17_3  and  N18_34 
REMARK    4  A    between atoms: C11_5  and  N10_10 
REMARK       I    between atoms: N10_10  and  C08_18 
REMARK    5  A    between atoms: C03_13  and  C29_23 
REMARK    6  A    between atoms: C05_15  and  C08_18 
REMARK    7  A    between atoms: C30_24  and  C31_25 
ROOT
HETATM    1  N10   D T2601     131.097 130.689 138.383  1.00  8.06    -0.208 NA
HETATM    2  C08   D T2601     130.979 129.228 138.407  1.00  2.47     0.279 C 
HETATM    3  O09   D T2601     131.184 128.593 137.435  1.00 18.20    -0.265 OA
ENDROOT
BRANCH   2   4
HETATM    4  C05   D T2601     130.604 128.473 139.701  1.00 10.54     0.059 A 
HETATM    5  C04   D T2601     131.596 127.785 140.378  1.00 11.07     0.013 A 
HETATM    6  C03   D T2601     131.291 127.112 141.543  1.00  8.29     0.038 A 
HETATM    7  C02   D T2601     130.002 127.128 142.049  1.00  6.21    -0.014 A 
HETATM    8  C01   D T2601     129.679 126.381 143.333  1.00 12.09     0.032 C 
HETATM    9  C07   D T2601     129.009 127.820 141.376  1.00 18.64    -0.004 A 
HETATM   10  C06   D T2601     129.310 128.499 140.200  1.00 27.97     0.004 A 
BRANCH   6  11
HETATM   11  C29   D T2601     132.418 126.359 142.250  1.00 10.14    -0.060 C 
HETATM   12  C30   D T2601     133.283 125.769 142.814  1.00 12.27    -0.058 C 
BRANCH  12  13
HETATM   13  C31   D T2601     134.389 125.004 143.553  1.00 14.65     0.061 A 
HETATM   14  C32   D T2601     135.700 125.064 143.120  1.00 20.27     0.015 A 
HETATM   15  C33   D T2601     136.604 124.374 143.808  1.00 16.21     0.059 A 
HETATM   16  C34   D T2601     136.255 123.597 144.950  1.00 17.93     0.185 A 
HETATM   17  C37   D T2601     138.023 124.130 143.760  1.00 19.98     0.125 A 
HETATM   18  N35   D T2601     137.540 123.089 145.297  1.00 17.12    -0.129 NA
HETATM   19  N38   D T2601     135.011 123.506 145.405  1.00 17.86    -0.223 NA
HETATM   20  N36   D T2601     138.612 123.390 144.606  1.00 18.25    -0.145 NA
HETATM   21  C39   D T2601     134.058 124.217 144.701  1.00 12.87     0.109 A 
ENDBRANCH  12  13
ENDBRANCH   6  11
ENDBRANCH   2   4
BRANCH   1  22
HETATM   22  C11   D T2601     131.479 131.391 137.128  1.00 14.61     0.085 A 
HETATM   23  C12   D T2601     132.811 131.645 136.809  1.00 15.90     0.023 A 
HETATM   24  C13   D T2601     133.182 132.320 135.625  1.00  0.00     0.071 A 
HETATM   25  C14   D T2601     132.160 132.744 134.722  1.00 15.61     0.015 A 
HETATM   26  C15   D T2601     130.835 132.475 135.066  1.00 19.64    -0.001 A 
HETATM   27  C16   D T2601     130.491 131.809 136.251  1.00 12.94     0.019 A 
BRANCH  24  28
HETATM   28  C25   D T2601     134.669 132.559 135.351  1.00 12.85     0.419 C 
HETATM   29  F26   D T2601     135.153 131.597 134.518  1.00 14.34    -0.166 F 
HETATM   30  F27   D T2601     134.817 133.770 134.748  1.00 19.86    -0.166 F 
HETATM   31  F28   D T2601     135.357 132.544 136.530  1.00 33.27    -0.166 F 
ENDBRANCH  24  28
BRANCH  25  32
HETATM   32  C17   D T2601     132.488 133.497 133.377  1.00 22.96     0.277 C 
BRANCH  32  33
HETATM   33  N18   D T2601     131.952 132.857 132.334  1.00 28.73     0.146 N 
HETATM   34  C19   D T2601     132.821 131.998 131.851  1.00 11.84     0.286 C 
HETATM   35  C20   D T2601     132.616 131.595 130.379  1.00 15.66     0.286 C 
HETATM   36  N21   D T2601     131.380 131.874 130.009  1.00  6.09     0.143 N 
HETATM   37  C22   D T2601     131.216 133.176 130.065  1.00  9.54     0.286 C 
HETATM   38  C24   D T2601     131.186 131.467 128.790  1.00  8.86     0.285 C 
HETATM   39  C23   D T2601     131.453 133.709 131.481  1.00 19.33     0.286 C 
ENDBRANCH  32  33
ENDBRANCH  25  32
ENDBRANCH   1  22
TORSDOF 7
ENDMDL
MODEL 5
REMARK VINA RESULT:      -7.6      3.977     12.731
REMARK  7 active torsions:
REMARK  status: ('A' for Active; 'I' for Inactive)
REMARK    1  A    between atoms: C13_1  and  C25_22 
REMARK    2  A    between atoms: C17_3  and  C14_7 
REMARK    3  A    between atoms: C17_3  and  N18_34 
REMARK    4  A    between atoms: C11_5  and  N10_10 
REMARK       I    between atoms: N10_10  and  C08_18 
REMARK    5  A    between atoms: C03_13  and  C29_23 
REMARK    6  A    between atoms: C05_15  and  C08_18 
REMARK    7  A    between atoms: C30_24  and  C31_25 
ROOT
HETATM    1  N10   D T2601     132.504 130.810 137.633  1.00  8.06    -0.208 NA
HETATM    2  C08   D T2601     131.300 130.003 137.847  1.00  2.47     0.279 C 
HETATM    3  O09   D T2601     130.426 130.008 137.056  1.00 18.20    -0.265 OA
ENDROOT
BRANCH   2   4
HETATM    4  C05   D T2601     131.142 129.111 139.097  1.00 10.54     0.059 A 
HETATM    5  C04   D T2601     132.279 128.581 139.681  1.00 11.07     0.013 A 
HETATM    6  C03   D T2601     132.169 127.790 140.806  1.00  8.29     0.038 A 
HETATM    7  C02   D T2601     130.929 127.530 141.365  1.00  6.21    -0.014 A 
HETATM    8  C01   D T2601     130.820 126.655 142.604  1.00 12.09     0.032 C 
HETATM    9  C07   D T2601     129.789 128.063 140.785  1.00 18.64    -0.004 A 
HETATM   10  C06   D T2601     129.895 128.860 139.650  1.00 27.97     0.004 A 
BRANCH   6  11
HETATM   11  C29   D T2601     133.453 127.220 141.409  1.00 10.14    -0.060 C 
HETATM   12  C30   D T2601     134.451 126.790 141.892  1.00 12.27    -0.058 C 
BRANCH  12  13
HETATM   13  C31   D T2601     135.736 126.244 142.527  1.00 14.65     0.061 A 
HETATM   14  C32   D T2601     135.771 124.977 143.077  1.00 20.27     0.015 A 
HETATM   15  C33   D T2601     136.919 124.572 143.610  1.00 16.21     0.059 A 
HETATM   16  C34   D T2601     138.080 125.396 143.623  1.00 17.93     0.185 A 
HETATM   17  C37   D T2601     137.434 123.398 144.268  1.00 19.98     0.125 A 
HETATM   18  N35   D T2601     138.991 124.518 144.278  1.00 17.12    -0.129 NA
HETATM   19  N38   D T2601     138.099 126.620 143.110  1.00 17.86    -0.223 NA
HETATM   20  N36   D T2601     138.634 123.321 144.674  1.00 18.25    -0.145 NA
HETATM   21  C39   D T2601     136.913 127.058 142.551  1.00 12.87     0.109 A 
ENDBRANCH  12  13
ENDBRANCH   6  11
ENDBRANCH   2   4
BRANCH   1  22
HETATM   22  C11   D T2601     132.641 131.647 136.410  1.00 14.61     0.085 A 
HETATM   23  C12   D T2601     133.162 131.131 135.226  1.00 15.90     0.023 A 
HETATM   24  C13   D T2601     133.305 131.920 134.064  1.00  0.00     0.071 A 
HETATM   25  C14   D T2601     132.891 133.287 134.102  1.00 15.61     0.015 A 
HETATM   26  C15   D T2601     132.371 133.777 135.300  1.00 19.64    -0.001 A 
HETATM   27  C16   D T2601     132.246 132.974 136.443  1.00 12.94     0.019 A 
BRANCH  24  28
HETATM   28  C25   D T2601     133.887 131.274 132.803  1.00 12.85     0.419 C 
HETATM   29  F26   D T2601     134.945 132.001 132.350  1.00 14.34    -0.166 F 
HETATM   30  F27   D T2601     134.320 130.021 133.110  1.00 19.86    -0.166 F 
HETATM   31  F28   D T2601     132.922 131.205 131.841  1.00 33.27    -0.166 F 
ENDBRANCH  24  28
BRANCH  25  32
HETATM   32  C17   D T2601     133.009 134.234 132.848  1.00 22.96     0.277 C 
BRANCH  32  33
HETATM   33  N18   D T2601     131.801 134.626 132.436  1.00 28.73     0.146 N 
HETATM   34  C19   D T2601     131.508 134.031 131.301  1.00 11.84     0.286 C 
HETATM   35  C20   D T2601     130.466 134.745 130.421  1.00 15.66     0.286 C 
HETATM   36  N21   D T2601     129.773 135.597 131.154  1.00  6.09     0.143 N 
HETATM   37  C22   D T2601     130.591 136.527 131.590  1.00  9.54     0.286 C 
HETATM   38  C24   D T2601     128.845 136.145 130.427  1.00  8.86     0.285 C 
HETATM   39  C23   D T2601     131.716 135.928 132.439  1.00 19.33     0.286 C 
ENDBRANCH  32  33
ENDBRANCH  25  32
ENDBRANCH   1  22
TORSDOF 7
ENDMDL
MODEL 6
REMARK VINA RESULT:      -7.5      6.082      7.504
REMARK  7 active torsions:
REMARK  status: ('A' for Active; 'I' for Inactive)
REMARK    1  A    between atoms: C13_1  and  C25_22 
REMARK    2  A    between atoms: C17_3  and  C14_7 
REMARK    3  A    between atoms: C17_3  and  N18_34 
REMARK    4  A    between atoms: C11_5  and  N10_10 
REMARK       I    between atoms: N10_10  and  C08_18 
REMARK    5  A    between atoms: C03_13  and  C29_23 
REMARK    6  A    between atoms: C05_15  and  C08_18 
REMARK    7  A    between atoms: C30_24  and  C31_25 
ROOT
HETATM    1  N10   D T2601     132.687 127.475 141.428  1.00  8.06    -0.208 NA
HETATM    2  C08   D T2601     132.363 128.476 142.449  1.00  2.47     0.279 C 
HETATM    3  O09   D T2601     133.194 128.876 143.183  1.00 18.20    -0.265 OA
ENDROOT
BRANCH   2   4
HETATM    4  C05   D T2601     130.936 129.051 142.585  1.00 10.54     0.059 A 
HETATM    5  C04   D T2601     130.714 130.367 142.218  1.00 11.07     0.013 A 
HETATM    6  C03   D T2601     129.447 130.903 142.318  1.00  8.29     0.038 A 
HETATM    7  C02   D T2601     128.390 130.133 142.773  1.00  6.21    -0.014 A 
HETATM    8  C01   D T2601     126.999 130.737 142.881  1.00 12.09     0.032 C 
HETATM    9  C07   D T2601     128.609 128.814 143.136  1.00 18.64    -0.004 A 
HETATM   10  C06   D T2601     129.885 128.269 143.038  1.00 27.97     0.004 A 
BRANCH   6  11
HETATM   11  C29   D T2601     129.254 132.364 141.910  1.00 10.14    -0.060 C 
HETATM   12  C30   D T2601     129.085 133.499 141.596  1.00 12.27    -0.058 C 
BRANCH  12  13
HETATM   13  C31   D T2601     128.853 134.961 141.194  1.00 14.65     0.061 A 
HETATM   14  C32   D T2601     129.851 135.692 140.578  1.00 20.27     0.015 A 
HETATM   15  C33   D T2601     129.579 136.953 140.260  1.00 16.21     0.059 A 
HETATM   16  C34   D T2601     128.313 137.547 140.534  1.00 17.93     0.185 A 
HETATM   17  C37   D T2601     130.249 138.065 139.635  1.00 19.98     0.125 A 
HETATM   18  N35   D T2601     128.541 138.852 140.010  1.00 17.12    -0.129 NA
HETATM   19  N38   D T2601     127.323 136.889 141.125  1.00 17.86    -0.223 NA
HETATM   20  N36   D T2601     129.685 139.190 139.468  1.00 18.25    -0.145 NA
HETATM   21  C39   D T2601     127.589 135.575 141.463  1.00 12.87     0.109 A 
ENDBRANCH  12  13
ENDBRANCH   6  11
ENDBRANCH   2   4
BRANCH   1  22
HETATM   22  C11   D T2601     134.074 126.950 141.304  1.00 14.61     0.085 A 
HETATM   23  C12   D T2601     134.643 126.148 142.290  1.00 15.90     0.023 A 
HETATM   24  C13   D T2601     135.961 125.654 142.185  1.00  0.00     0.071 A 
HETATM   25  C14   D T2601     136.731 125.979 141.027  1.00 15.61     0.015 A 
HETATM   26  C15   D T2601     136.136 126.783 140.054  1.00 19.64    -0.001 A 
HETATM   27  C16   D T2601     134.827 127.267 140.185  1.00 12.94     0.019 A 
BRANCH  24  28
HETATM   28  C25   D T2601     136.510 124.777 143.314  1.00 12.85     0.419 C 
HETATM   29  F26   D T2601     137.586 125.376 143.894  1.00 14.34    -0.166 F 
HETATM   30  F27   D T2601     135.542 124.615 144.257  1.00 19.86    -0.166 F 
HETATM   31  F28   D T2601     136.869 123.560 142.811  1.00 33.27    -0.166 F 
ENDBRANCH  24  28
BRANCH  25  32
HETATM   32  C17   D T2601     138.207 125.463 140.828  1.00 22.96     0.277 C 
BRANCH  32  33
HETATM   33  N18   D T2601     139.037 126.483 140.595  1.00 28.73     0.146 N 
HETATM   34  C19   D T2601     138.874 127.403 141.520  1.00 11.84     0.286 C 
HETATM   35  C20   D T2601     139.303 128.829 141.128  1.00 15.66     0.286 C 
HETATM   36  N21   D T2601     140.121 128.780 140.094  1.00  6.09     0.143 N 
HETATM   37  C22   D T2601     139.461 128.294 139.067  1.00  9.54     0.286 C 
HETATM   38  C24   D T2601     140.540 129.977 139.809  1.00  8.86     0.285 C 
HETATM   39  C23   D T2601     138.929 126.888 139.359  1.00 19.33     0.286 C 
ENDBRANCH  32  33
ENDBRANCH  25  32
ENDBRANCH   1  22
TORSDOF 7
ENDMDL
MODEL 7
REMARK VINA RESULT:      -7.4      6.050      7.655
REMARK  7 active torsions:
REMARK  status: ('A' for Active; 'I' for Inactive)
REMARK    1  A    between atoms: C13_1  and  C25_22 
REMARK    2  A    between atoms: C17_3  and  C14_7 
REMARK    3  A    between atoms: C17_3  and  N18_34 
REMARK    4  A    between atoms: C11_5  and  N10_10 
REMARK       I    between atoms: N10_10  and  C08_18 
REMARK    5  A    between atoms: C03_13  and  C29_23 
REMARK    6  A    between atoms: C05_15  and  C08_18 
REMARK    7  A    between atoms: C30_24  and  C31_25 
ROOT
HETATM    1  N10   D T2601     132.198 128.200 144.704  1.00  8.06    -0.208 NA
HETATM    2  C08   D T2601     130.763 127.917 144.599  1.00  2.47     0.279 C 
HETATM    3  O09   D T2601     130.385 126.858 144.246  1.00 18.20    -0.265 OA
ENDROOT
BRANCH   2   4
HETATM    4  C05   D T2601     129.706 128.982 144.961  1.00 10.54     0.059 A 
HETATM    5  C04   D T2601     129.606 130.113 144.170  1.00 11.07     0.013 A 
HETATM    6  C03   D T2601     128.662 131.075 144.464  1.00  8.29     0.038 A 
HETATM    7  C02   D T2601     127.804 130.915 145.538  1.00  6.21    -0.014 A 
HETATM    8  C01   D T2601     126.770 131.984 145.853  1.00 12.09     0.032 C 
HETATM    9  C07   D T2601     127.899 129.781 146.330  1.00 18.64    -0.004 A 
HETATM   10  C06   D T2601     128.849 128.809 146.038  1.00 27.97     0.004 A 
BRANCH   6  11
HETATM   11  C29   D T2601     128.597 132.311 143.566  1.00 10.14    -0.060 C 
HETATM   12  C30   D T2601     128.539 133.282 142.882  1.00 12.27    -0.058 C 
BRANCH  12  13
HETATM   13  C31   D T2601     128.459 134.543 142.012  1.00 14.65     0.061 A 
HETATM   14  C32   D T2601     129.559 134.980 141.299  1.00 20.27     0.015 A 
HETATM   15  C33   D T2601     129.417 136.081 140.567  1.00 16.21     0.059 A 
HETATM   16  C34   D T2601     128.186 136.796 140.507  1.00 17.93     0.185 A 
HETATM   17  C37   D T2601     130.224 136.892 139.691  1.00 19.98     0.125 A 
HETATM   18  N35   D T2601     128.560 137.845 139.618  1.00 17.12    -0.129 NA
HETATM   19  N38   D T2601     127.102 136.419 141.173  1.00 17.86    -0.223 NA
HETATM   20  N36   D T2601     129.768 137.927 139.116  1.00 18.25    -0.145 NA
HETATM   21  C39   D T2601     127.233 135.276 141.940  1.00 12.87     0.109 A 
ENDBRANCH  12  13
ENDBRANCH   6  11
ENDBRANCH   2   4
BRANCH   1  22
HETATM   22  C11   D T2601     133.197 127.150 144.368  1.00 14.61     0.085 A 
HETATM   23  C12   D T2601     133.593 126.193 145.299  1.00 15.90     0.023 A 
HETATM   24  C13   D T2601     134.548 125.199 144.992  1.00  0.00     0.071 A 
HETATM   25  C14   D T2601     135.117 125.169 143.682  1.00 15.61     0.015 A 
HETATM   26  C15   D T2601     134.701 126.139 142.769  1.00 19.64    -0.001 A 
HETATM   27  C16   D T2601     133.756 127.120 143.101  1.00 12.94     0.019 A 
BRANCH  24  28
HETATM   28  C25   D T2601     134.927 124.184 146.073  1.00 12.85     0.419 C 
HETATM   29  F26   D T2601     134.406 122.962 145.774  1.00 14.34    -0.166 F 
HETATM   30  F27   D T2601     136.283 124.078 146.123  1.00 19.86    -0.166 F 
HETATM   31  F28   D T2601     134.454 124.609 147.281  1.00 33.27    -0.166 F 
ENDBRANCH  24  28
BRANCH  25  32
HETATM   32  C17   D T2601     136.184 124.090 143.255  1.00 22.96     0.277 C 
BRANCH  32  33
HETATM   33  N18   D T2601     137.284 124.677 142.775  1.00 28.73     0.146 N 
HETATM   34  C19   D T2601     137.678 125.617 143.605  1.00 11.84     0.286 C 
HETATM   35  C20   D T2601     138.545 126.732 142.990  1.00 15.66     0.286 C 
HETATM   36  N21   D T2601     139.059 126.316 141.847  1.00  6.09     0.143 N 
HETATM   37  C22   D T2601     138.075 126.103 141.005  1.00  9.54     0.286 C 
HETATM   38  C24   D T2601     139.849 127.229 141.365  1.00  8.86     0.285 C 
HETATM   39  C23   D T2601     137.103 125.045 141.536  1.00 19.33     0.286 C 
ENDBRANCH  32  33
ENDBRANCH  25  32
ENDBRANCH   1  22
TORSDOF 7
ENDMDL
MODEL 8
REMARK VINA RESULT:      -7.4      3.692     12.499
REMARK  7 active torsions:
REMARK  status: ('A' for Active; 'I' for Inactive)
REMARK    1  A    between atoms: C13_1  and  C25_22 
REMARK    2  A    between atoms: C17_3  and  C14_7 
REMARK    3  A    between atoms: C17_3  and  N18_34 
REMARK    4  A    between atoms: C11_5  and  N10_10 
REMARK       I    between atoms: N10_10  and  C08_18 
REMARK    5  A    between atoms: C03_13  and  C29_23 
REMARK    6  A    between atoms: C05_15  and  C08_18 
REMARK    7  A    between atoms: C30_24  and  C31_25 
ROOT
HETATM    1  N10   D T2601     131.947 130.648 138.700  1.00  8.06    -0.208 NA
HETATM    2  C08   D T2601     130.690 129.938 138.952  1.00  2.47     0.279 C 
HETATM    3  O09   D T2601     129.734 130.160 138.300  1.00 18.20    -0.265 OA
ENDROOT
BRANCH   2   4
HETATM    4  C05   D T2601     130.579 128.869 140.061  1.00 10.54     0.059 A 
HETATM    5  C04   D T2601     131.736 128.249 140.501  1.00 11.07     0.013 A 
HETATM    6  C03   D T2601     131.668 127.299 141.498  1.00  8.29     0.038 A 
HETATM    7  C02   D T2601     130.453 126.966 142.073  1.00  6.21    -0.014 A 
HETATM    8  C01   D T2601     130.392 125.915 143.170  1.00 12.09     0.032 C 
HETATM    9  C07   D T2601     129.294 127.589 141.638  1.00 18.64    -0.004 A 
HETATM   10  C06   D T2601     129.357 128.547 140.631  1.00 27.97     0.004 A 
BRANCH   6  11
HETATM   11  C29   D T2601     132.971 126.635 141.944  1.00 10.14    -0.060 C 
HETATM   12  C30   D T2601     133.976 126.111 142.305  1.00 12.27    -0.058 C 
BRANCH  12  13
HETATM   13  C31   D T2601     135.264 125.428 142.782  1.00 14.65     0.061 A 
HETATM   14  C32   D T2601     135.252 124.576 143.870  1.00 20.27     0.015 A 
HETATM   15  C33   D T2601     136.406 124.021 144.227  1.00 16.21     0.059 A 
HETATM   16  C34   D T2601     137.619 124.282 143.527  1.00 17.93     0.185 A 
HETATM   17  C37   D T2601     136.885 123.111 145.236  1.00 19.98     0.125 A 
HETATM   18  N35   D T2601     138.512 123.469 144.285  1.00 17.12    -0.129 NA
HETATM   19  N38   D T2601     137.684 125.092 142.478  1.00 17.86    -0.223 NA
HETATM   20  N36   D T2601     138.103 122.761 145.308  1.00 18.25    -0.145 NA
HETATM   21  C39   D T2601     136.493 125.678 142.093  1.00 12.87     0.109 A 
ENDBRANCH  12  13
ENDBRANCH   6  11
ENDBRANCH   2   4
BRANCH   1  22
HETATM   22  C11   D T2601     132.033 131.661 137.612  1.00 14.61     0.085 A 
HETATM   23  C12   D T2601     132.037 133.026 137.884  1.00 15.90     0.023 A 
HETATM   24  C13   D T2601     132.108 133.994 136.858  1.00  0.00     0.071 A 
HETATM   25  C14   D T2601     132.191 133.557 135.500  1.00 15.61     0.015 A 
HETATM   26  C15   D T2601     132.188 132.183 135.258  1.00 19.64    -0.001 A 
HETATM   27  C16   D T2601     132.108 131.242 136.294  1.00 12.94     0.019 A 
BRANCH  24  28
HETATM   28  C25   D T2601     132.107 135.476 137.243  1.00 12.85     0.419 C 
HETATM   29  F26   D T2601     131.029 136.102 136.697  1.00 14.34    -0.166 F 
HETATM   30  F27   D T2601     132.029 135.579 138.598  1.00 19.86    -0.166 F 
HETATM   31  F28   D T2601     133.259 136.061 136.802  1.00 33.27    -0.166 F 
ENDBRANCH  24  28
BRANCH  25  32
HETATM   32  C17   D T2601     132.281 134.570 134.297  1.00 22.96     0.277 C 
BRANCH  32  33
HETATM   33  N18   D T2601     133.319 134.277 133.509  1.00 28.73     0.146 N 
HETATM   34  C19   D T2601     134.251 135.193 133.650  1.00 11.84     0.286 C 
HETATM   35  C20   D T2601     135.229 135.339 132.470  1.00 15.66     0.286 C 
HETATM   36  N21   D T2601     135.193 134.250 131.724  1.00  6.09     0.143 N 
HETATM   37  C22   D T2601     133.993 134.146 131.202  1.00  9.54     0.286 C 
HETATM   38  C24   D T2601     136.072 134.344 130.770  1.00  8.86     0.285 C 
HETATM   39  C23   D T2601     132.917 134.051 132.288  1.00 19.33     0.286 C 
ENDBRANCH  32  33
ENDBRANCH  25  32
ENDBRANCH   1  22
TORSDOF 7
ENDMDL
MODEL 9
REMARK VINA RESULT:      -7.2      3.857     12.614
REMARK  7 active torsions:
REMARK  status: ('A' for Active; 'I' for Inactive)
REMARK    1  A    between atoms: C13_1  and  C25_22 
REMARK    2  A    between atoms: C17_3  and  C14_7 
REMARK    3  A    between atoms: C17_3  and  N18_34 
REMARK    4  A    between atoms: C11_5  and  N10_10 
REMARK       I    between atoms: N10_10  and  C08_18 
REMARK    5  A    between atoms: C03_13  and  C29_23 
REMARK    6  A    between atoms: C05_15  and  C08_18 
REMARK    7  A    between atoms: C30_24  and  C31_25 
ROOT
HETATM    1  N10   D T2601     131.518 130.153 137.122  1.00  8.06    -0.208 NA
HETATM    2  C08   D T2601     131.597 130.459 138.553  1.00  2.47     0.279 C 
HETATM    3  O09   D T2601     131.828 131.555 138.920  1.00 18.20    -0.265 OA
ENDROOT
BRANCH   2   4
HETATM    4  C05   D T2601     131.366 129.369 139.622  1.00 10.54     0.059 A 
HETATM    5  C04   D T2601     132.467 128.758 140.195  1.00 11.07     0.013 A 
HETATM    6  C03   D T2601     132.290 127.789 141.161  1.00  8.29     0.038 A 
HETATM    7  C02   D T2601     131.018 127.429 141.572  1.00  6.21    -0.014 A 
HETATM    8  C01   D T2601     130.836 126.358 142.636  1.00 12.09     0.032 C 
HETATM    9  C07   D T2601     129.913 128.043 141.003  1.00 18.64    -0.004 A 
HETATM   10  C06   D T2601     130.087 129.019 140.028  1.00 27.97     0.004 A 
BRANCH   6  11
HETATM   11  C29   D T2601     133.537 127.137 141.757  1.00 10.14    -0.060 C 
HETATM   12  C30   D T2601     134.505 126.639 142.237  1.00 12.27    -0.058 C 
BRANCH  12  13
HETATM   13  C31   D T2601     135.751 126.004 142.868  1.00 14.65     0.061 A 
HETATM   14  C32   D T2601     135.716 124.712 143.356  1.00 20.27     0.015 A 
HETATM   15  C33   D T2601     136.832 124.228 143.891  1.00 16.21     0.059 A 
HETATM   16  C34   D T2601     138.029 124.996 143.967  1.00 17.93     0.185 A 
HETATM   17  C37   D T2601     137.280 123.001 144.500  1.00 19.98     0.125 A 
HETATM   18  N35   D T2601     138.885 124.046 144.595  1.00 17.12    -0.129 NA
HETATM   19  N38   D T2601     138.115 126.241 143.514  1.00 17.86    -0.223 NA
HETATM   20  N36   D T2601     138.466 122.849 144.925  1.00 18.25    -0.145 NA
HETATM   21  C39   D T2601     136.962 126.760 142.955  1.00 12.87     0.109 A 
ENDBRANCH  12  13
ENDBRANCH   6  11
ENDBRANCH   2   4
BRANCH   1  22
HETATM   22  C11   D T2601     131.725 131.225 136.111  1.00 14.61     0.085 A 
HETATM   23  C12   D T2601     132.932 131.363 135.430  1.00 15.90     0.023 A 
HETATM   24  C13   D T2601     133.142 132.383 134.477  1.00  0.00     0.071 A 
HETATM   25  C14   D T2601     132.078 133.295 134.195  1.00 15.61     0.015 A 
HETATM   26  C15   D T2601     130.880 133.131 134.890  1.00 19.64    -0.001 A 
HETATM   27  C16   D T2601     130.699 132.114 135.837  1.00 12.94     0.019 A 
BRANCH  24  28
HETATM   28  C25   D T2601     134.499 132.465 133.773  1.00 12.85     0.419 C 
HETATM   29  F26   D T2601     134.326 132.516 132.423  1.00 14.34    -0.166 F 
HETATM   30  F27   D T2601     135.135 133.599 134.172  1.00 19.86    -0.166 F 
HETATM   31  F28   D T2601     135.250 131.375 134.106  1.00 33.27    -0.166 F 
ENDBRANCH  24  28
BRANCH  25  32
HETATM   32  C17   D T2601     132.226 134.456 133.140  1.00 22.96     0.277 C 
BRANCH  32  33
HETATM   33  N18   D T2601     132.019 135.645 133.714  1.00 28.73     0.146 N 
HETATM   34  C19   D T2601     131.387 136.434 132.875  1.00 11.84     0.286 C 
HETATM   35  C20   D T2601     131.554 137.945 133.122  1.00 15.66     0.286 C 
HETATM   36  N21   D T2601     131.964 138.150 134.361  1.00  6.09     0.143 N 
HETATM   37  C22   D T2601     133.156 137.617 134.495  1.00  9.54     0.286 C 
HETATM   38  C24   D T2601     132.034 139.428 134.592  1.00  8.86     0.285 C 
HETATM   39  C23   D T2601     133.130 136.112 134.215  1.00 19.33     0.286 C 
ENDBRANCH  32  33
ENDBRANCH  25  32
ENDBRANCH   1  22
TORSDOF 7
ENDMDL
