MODEL 1
REMARK VINA RESULT:    -9.074      0.000      0.000
REMARK INTER + INTRA:         -13.513
REMARK INTER:                 -12.787
REMARK INTRA:                  -0.727
REMARK UNBOUND:                -0.727
REMARK  7 active torsions:
REMARK  status: ('A' for Active; 'I' for Inactive)
REMARK    1  A    between atoms: C13_1  and  C25_22 
REMARK    2  A    between atoms: C17_3  and  C14_7 
REMARK    3  A    between atoms: C17_3  and  N18_34 
REMARK    4  A    between atoms: C11_5  and  N10_10 
REMARK       I    between atoms: N10_10  and  C08_18 
REMARK    5  A    between atoms: C03_13  and  C29_23 
REMARK    6  A    between atoms: C05_15  and  C08_18 
REMARK    7  A    between atoms: C30_24  and  C31_25 
ROOT
HETATM    1  N10   D T2601     241.312 175.303 211.514  1.00 54.54    -0.208 NA
HETATM    2  C08   D T2601     241.452 173.939 210.992  1.00 52.16     0.279 C 
HETATM    3  O09   D T2601     240.603 173.453 210.330  1.00 52.08    -0.265 OA
ENDROOT
BRANCH   2   4
HETATM    4  C05   D T2601     242.726 173.117 211.289  1.00 55.16     0.059 A 
HETATM    5  C04   D T2601     242.812 171.821 210.804  1.00 57.21     0.013 A 
HETATM    6  C03   D T2601     243.940 171.064 211.053  1.00 54.59     0.038 A 
HETATM    7  C02   D T2601     244.989 171.596 211.788  1.00 41.46    -0.014 A 
HETATM    8  C01   D T2601     246.227 170.753 212.059  1.00 47.17     0.032 C 
HETATM    9  C07   D T2601     244.908 172.893 212.272  1.00 46.83    -0.004 A 
HETATM   10  C06   D T2601     243.774 173.657 212.022  1.00 54.40     0.004 A 
BRANCH   6  11
HETATM   11  C29   D T2601     244.010 169.633 210.506  1.00 62.01    -0.060 C 
HETATM   12  C30   D T2601     244.076 168.516 210.090  1.00 59.38    -0.058 C 
BRANCH  12  13
HETATM   13  C31   D T2601     244.173 167.081 209.548  1.00 50.79     0.061 A 
HETATM   14  C32   D T2601     244.794 166.819 208.340  1.00 52.21     0.015 A 
HETATM   15  C33   D T2601     244.842 165.554 207.933  1.00 50.05     0.059 A 
HETATM   16  C34   D T2601     244.281 164.486 208.699  1.00 52.57     0.185 A 
HETATM   17  C37   D T2601     245.355 164.816 206.805  1.00 58.30     0.125 A 
HETATM   18  N35   D T2601     244.594 163.387 207.846  1.00 56.79    -0.129 NA
HETATM   19  N38   D T2601     243.673 164.677 209.866  1.00 60.89    -0.223 NA
HETATM   20  N36   D T2601     245.234 163.554 206.713  1.00 62.69    -0.145 NA
HETATM   21  C39   D T2601     243.615 165.991 210.302  1.00 53.90     0.109 A 
ENDBRANCH  12  13
ENDBRANCH   6  11
ENDBRANCH   2   4
BRANCH   1  22
HETATM   22  C11   D T2601     240.099 176.119 211.234  1.00 54.10     0.085 A 
HETATM   23  C12   D T2601     239.030 176.155 212.125  1.00 44.78     0.023 A 
HETATM   24  C13   D T2601     237.869 176.918 211.872  1.00 45.32     0.071 A 
HETATM   25  C14   D T2601     237.803 177.686 210.669  1.00 49.02     0.015 A 
HETATM   26  C15   D T2601     238.889 177.635 209.794  1.00 60.33    -0.001 A 
HETATM   27  C16   D T2601     240.027 176.863 210.067  1.00 55.57     0.019 A 
BRANCH  24  28
HETATM   28  C25   D T2601     236.736 176.903 212.908  1.00 59.37     0.419 C 
HETATM   29  F26   D T2601     236.409 178.171 213.287  1.00 68.99    -0.166 F 
HETATM   30  F27   D T2601     235.644 176.307 212.356  1.00 54.12    -0.166 F 
HETATM   31  F28   D T2601     237.129 176.187 214.001  1.00 77.73    -0.166 F 
ENDBRANCH  24  28
BRANCH  25  32
HETATM   32  C17   D T2601     236.558 178.573 210.300  1.00 46.42     0.277 C 
BRANCH  32  33
HETATM   33  N18   D T2601     236.726 179.036 209.059  1.00 63.20     0.146 N 
HETATM   34  C19   D T2601     237.164 180.273 209.086  1.00 56.59     0.286 C 
HETATM   35  C20   D T2601     237.048 181.023 207.746  1.00 57.91     0.286 C 
HETATM   36  N21   D T2601     236.782 180.175 206.765  1.00 61.09     0.143 N 
HETATM   37  C22   D T2601     235.631 179.584 207.009  1.00 58.33     0.286 C 
HETATM   38  C24   D T2601     236.708 180.823 205.638  1.00 58.82     0.285 C 
HETATM   39  C23   D T2601     235.648 178.849 208.352  1.00 60.02     0.286 C 
ENDBRANCH  32  33
ENDBRANCH  25  32
ENDBRANCH   1  22
TORSDOF 7
ENDMDL
MODEL 2
REMARK VINA RESULT:    -8.981      3.596     12.659
REMARK INTER + INTRA:         -13.382
REMARK INTER:                 -12.430
REMARK INTRA:                  -0.953
REMARK UNBOUND:                -0.727
REMARK  7 active torsions:
REMARK  status: ('A' for Active; 'I' for Inactive)
REMARK    1  A    between atoms: C13_1  and  C25_22 
REMARK    2  A    between atoms: C17_3  and  C14_7 
REMARK    3  A    between atoms: C17_3  and  N18_34 
REMARK    4  A    between atoms: C11_5  and  N10_10 
REMARK       I    between atoms: N10_10  and  C08_18 
REMARK    5  A    between atoms: C03_13  and  C29_23 
REMARK    6  A    between atoms: C05_15  and  C08_18 
REMARK    7  A    between atoms: C30_24  and  C31_25 
ROOT
HETATM    1  N10   D T2601     241.978 172.890 211.803  1.00 54.54    -0.208 NA
HETATM    2  C08   D T2601     241.084 172.752 212.957  1.00 52.16     0.279 C 
HETATM    3  O09   D T2601     241.017 171.735 213.555  1.00 52.08    -0.265 OA
ENDROOT
BRANCH   2   4
HETATM    4  C05   D T2601     240.221 173.946 213.423  1.00 55.16     0.059 A 
HETATM    5  C04   D T2601     239.797 174.871 212.482  1.00 57.21     0.013 A 
HETATM    6  C03   D T2601     239.025 175.947 212.871  1.00 54.59     0.038 A 
HETATM    7  C02   D T2601     238.669 176.107 214.202  1.00 41.46    -0.014 A 
HETATM    8  C01   D T2601     237.819 177.298 214.622  1.00 47.17     0.032 C 
HETATM    9  C07   D T2601     239.090 175.182 215.147  1.00 46.83    -0.004 A 
HETATM   10  C06   D T2601     239.867 174.098 214.757  1.00 54.40     0.004 A 
BRANCH   6  11
HETATM   11  C29   D T2601     238.568 176.957 211.811  1.00 62.01    -0.060 C 
HETATM   12  C30   D T2601     238.225 177.740 210.977  1.00 59.38    -0.058 C 
BRANCH  12  13
HETATM   13  C31   D T2601     237.794 178.755 209.906  1.00 50.79     0.061 A 
HETATM   14  C32   D T2601     237.369 178.333 208.659  1.00 52.21     0.015 A 
HETATM   15  C33   D T2601     237.010 179.266 207.782  1.00 50.05     0.059 A 
HETATM   16  C34   D T2601     237.052 180.659 208.093  1.00 52.57     0.185 A 
HETATM   17  C37   D T2601     236.524 179.323 206.426  1.00 58.30     0.125 A 
HETATM   18  N35   D T2601     236.585 181.197 206.858  1.00 56.79    -0.129 NA
HETATM   19  N38   D T2601     237.451 181.124 209.274  1.00 60.89    -0.223 NA
HETATM   20  N36   D T2601     236.262 180.425 205.848  1.00 62.69    -0.145 NA
HETATM   21  C39   D T2601     237.829 180.162 210.197  1.00 53.90     0.109 A 
ENDBRANCH  12  13
ENDBRANCH   6  11
ENDBRANCH   2   4
BRANCH   1  22
HETATM   22  C11   D T2601     242.827 171.758 211.341  1.00 54.10     0.085 A 
HETATM   23  C12   D T2601     242.400 170.899 210.331  1.00 44.78     0.023 A 
HETATM   24  C13   D T2601     243.189 169.816 209.885  1.00 45.32     0.071 A 
HETATM   25  C14   D T2601     244.470 169.610 210.483  1.00 49.02     0.015 A 
HETATM   26  C15   D T2601     244.875 170.486 211.491  1.00 60.33    -0.001 A 
HETATM   27  C16   D T2601     244.069 171.549 211.920  1.00 55.57     0.019 A 
BRANCH  24  28
HETATM   28  C25   D T2601     242.644 168.918 208.766  1.00 59.37     0.419 C 
HETATM   29  F26   D T2601     241.601 169.518 208.126  1.00 68.99    -0.166 F 
HETATM   30  F27   D T2601     243.640 168.682 207.868  1.00 54.12    -0.166 F 
HETATM   31  F28   D T2601     242.231 167.731 209.296  1.00 77.73    -0.166 F 
ENDBRANCH  24  28
BRANCH  25  32
HETATM   32  C17   D T2601     245.426 168.439 210.052  1.00 46.42     0.277 C 
BRANCH  32  33
HETATM   33  N18   D T2601     245.172 167.382 210.827  1.00 63.20     0.146 N 
HETATM   34  C19   D T2601     246.113 167.240 211.731  1.00 56.59     0.286 C 
HETATM   35  C20   D T2601     246.122 165.871 212.436  1.00 57.91     0.286 C 
HETATM   36  N21   D T2601     245.004 165.212 212.178  1.00 61.09     0.143 N 
HETATM   37  C22   D T2601     244.914 165.009 210.880  1.00 58.33     0.286 C 
HETATM   38  C24   D T2601     245.020 164.067 212.798  1.00 58.82     0.285 C 
HETATM   39  C23   D T2601     244.943 166.326 210.100  1.00 60.02     0.286 C 
ENDBRANCH  32  33
ENDBRANCH  25  32
ENDBRANCH   1  22
TORSDOF 7
ENDMDL
MODEL 3
REMARK VINA RESULT:    -8.827      4.294     12.625
REMARK INTER + INTRA:         -13.165
REMARK INTER:                 -12.015
REMARK INTRA:                  -1.150
REMARK UNBOUND:                -0.727
REMARK  7 active torsions:
REMARK  status: ('A' for Active; 'I' for Inactive)
REMARK    1  A    between atoms: C13_1  and  C25_22 
REMARK    2  A    between atoms: C17_3  and  C14_7 
REMARK    3  A    between atoms: C17_3  and  N18_34 
REMARK    4  A    between atoms: C11_5  and  N10_10 
REMARK       I    between atoms: N10_10  and  C08_18 
REMARK    5  A    between atoms: C03_13  and  C29_23 
REMARK    6  A    between atoms: C05_15  and  C08_18 
REMARK    7  A    between atoms: C30_24  and  C31_25 
ROOT
HETATM    1  N10   D T2601     241.948 173.738 212.247  1.00 54.54    -0.208 NA
HETATM    2  C08   D T2601     241.124 173.727 213.460  1.00 52.16     0.279 C 
HETATM    3  O09   D T2601     241.375 173.003 214.358  1.00 52.08    -0.265 OA
ENDROOT
BRANCH   2   4
HETATM    4  C05   D T2601     239.914 174.681 213.590  1.00 55.16     0.059 A 
HETATM    5  C04   D T2601     239.577 175.482 212.510  1.00 57.21     0.013 A 
HETATM    6  C03   D T2601     238.500 176.341 212.599  1.00 54.59     0.038 A 
HETATM    7  C02   D T2601     237.754 176.408 213.766  1.00 41.46    -0.014 A 
HETATM    8  C01   D T2601     236.570 177.361 213.855  1.00 47.17     0.032 C 
HETATM    9  C07   D T2601     238.087 175.606 214.848  1.00 46.83    -0.004 A 
HETATM   10  C06   D T2601     239.170 174.739 214.760  1.00 54.40     0.004 A 
BRANCH   6  11
HETATM   11  C29   D T2601     238.147 177.217 211.391  1.00 62.01    -0.060 C 
HETATM   12  C30   D T2601     237.858 177.899 210.453  1.00 59.38    -0.058 C 
BRANCH  12  13
HETATM   13  C31   D T2601     237.479 178.764 209.241  1.00 50.79     0.061 A 
HETATM   14  C32   D T2601     237.075 178.182 208.053  1.00 52.21     0.015 A 
HETATM   15  C33   D T2601     236.762 178.992 207.046  1.00 50.05     0.059 A 
HETATM   16  C34   D T2601     236.832 180.414 207.162  1.00 52.57     0.185 A 
HETATM   17  C37   D T2601     236.310 178.871 205.681  1.00 58.30     0.125 A 
HETATM   18  N35   D T2601     236.410 180.785 205.852  1.00 56.79    -0.129 NA
HETATM   19  N38   D T2601     237.214 181.029 208.277  1.00 60.89    -0.223 NA
HETATM   20  N36   D T2601     236.091 179.887 204.950  1.00 62.69    -0.145 NA
HETATM   21  C39   D T2601     237.544 180.197 209.335  1.00 53.90     0.109 A 
ENDBRANCH  12  13
ENDBRANCH   6  11
ENDBRANCH   2   4
BRANCH   1  22
HETATM   22  C11   D T2601     243.125 172.837 212.102  1.00 54.10     0.085 A 
HETATM   23  C12   D T2601     243.000 171.571 211.534  1.00 44.78     0.023 A 
HETATM   24  C13   D T2601     244.103 170.701 211.395  1.00 45.32     0.071 A 
HETATM   25  C14   D T2601     245.387 171.145 211.839  1.00 49.02     0.015 A 
HETATM   26  C15   D T2601     245.484 172.418 212.402  1.00 60.33    -0.001 A 
HETATM   27  C16   D T2601     244.371 173.260 212.535  1.00 55.57     0.019 A 
BRANCH  24  28
HETATM   28  C25   D T2601     243.880 169.323 210.757  1.00 59.37     0.419 C 
HETATM   29  F26   D T2601     244.708 169.142 209.690  1.00 68.99    -0.166 F 
HETATM   30  F27   D T2601     244.135 168.361 211.686  1.00 54.12    -0.166 F 
HETATM   31  F28   D T2601     242.581 169.215 210.350  1.00 77.73    -0.166 F 
ENDBRANCH  24  28
BRANCH  25  32
HETATM   32  C17   D T2601     246.677 170.254 211.721  1.00 46.42     0.277 C 
BRANCH  32  33
HETATM   33  N18   D T2601     247.278 170.226 212.912  1.00 63.20     0.146 N 
HETATM   34  C19   D T2601     248.579 170.326 212.772  1.00 56.59     0.286 C 
HETATM   35  C20   D T2601     249.390 169.945 214.025  1.00 57.91     0.286 C 
HETATM   36  N21   D T2601     248.595 169.856 215.079  1.00 61.09     0.143 N 
HETATM   37  C22   D T2601     247.700 168.915 214.863  1.00 58.33     0.286 C 
HETATM   38  C24   D T2601     249.300 169.553 216.131  1.00 58.82     0.285 C 
HETATM   39  C23   D T2601     246.877 169.198 213.603  1.00 60.02     0.286 C 
ENDBRANCH  32  33
ENDBRANCH  25  32
ENDBRANCH   1  22
TORSDOF 7
ENDMDL
MODEL 4
REMARK VINA RESULT:    -8.782      3.798     12.580
REMARK INTER + INTRA:         -13.102
REMARK INTER:                 -11.967
REMARK INTRA:                  -1.135
REMARK UNBOUND:                -0.727
REMARK  7 active torsions:
REMARK  status: ('A' for Active; 'I' for Inactive)
REMARK    1  A    between atoms: C13_1  and  C25_22 
REMARK    2  A    between atoms: C17_3  and  C14_7 
REMARK    3  A    between atoms: C17_3  and  N18_34 
REMARK    4  A    between atoms: C11_5  and  N10_10 
REMARK       I    between atoms: N10_10  and  C08_18 
REMARK    5  A    between atoms: C03_13  and  C29_23 
REMARK    6  A    between atoms: C05_15  and  C08_18 
REMARK    7  A    between atoms: C30_24  and  C31_25 
ROOT
HETATM    1  N10   D T2601     241.707 173.279 212.167  1.00 54.54    -0.208 NA
HETATM    2  C08   D T2601     240.983 173.336 213.441  1.00 52.16     0.279 C 
HETATM    3  O09   D T2601     241.236 172.586 214.318  1.00 52.08    -0.265 OA
ENDROOT
BRANCH   2   4
HETATM    4  C05   D T2601     239.881 174.397 213.666  1.00 55.16     0.059 A 
HETATM    5  C04   D T2601     239.475 175.175 212.593  1.00 57.21     0.013 A 
HETATM    6  C03   D T2601     238.492 176.129 212.765  1.00 54.59     0.038 A 
HETATM    7  C02   D T2601     237.908 176.312 214.010  1.00 41.46    -0.014 A 
HETATM    8  C01   D T2601     236.826 177.368 214.190  1.00 47.17     0.032 C 
HETATM    9  C07   D T2601     238.309 175.533 215.085  1.00 46.83    -0.004 A 
HETATM   10  C06   D T2601     239.299 174.572 214.913  1.00 54.40     0.004 A 
BRANCH   6  11
HETATM   11  C29   D T2601     238.061 176.977 211.563  1.00 62.01    -0.060 C 
HETATM   12  C30   D T2601     237.733 177.630 210.618  1.00 59.38    -0.058 C 
BRANCH  12  13
HETATM   13  C31   D T2601     237.324 178.475 209.401  1.00 50.79     0.061 A 
HETATM   14  C32   D T2601     236.763 177.884 208.283  1.00 52.21     0.015 A 
HETATM   15  C33   D T2601     236.432 178.676 207.268  1.00 50.05     0.059 A 
HETATM   16  C34   D T2601     236.640 180.088 207.305  1.00 52.57     0.185 A 
HETATM   17  C37   D T2601     235.849 178.539 205.956  1.00 58.30     0.125 A 
HETATM   18  N35   D T2601     236.135 180.441 206.019  1.00 56.79    -0.129 NA
HETATM   19  N38   D T2601     237.176 180.712 208.350  1.00 60.89    -0.223 NA
HETATM   20  N36   D T2601     235.656 179.540 205.196  1.00 62.69    -0.145 NA
HETATM   21  C39   D T2601     237.526 179.899 209.416  1.00 53.90     0.109 A 
ENDBRANCH  12  13
ENDBRANCH   6  11
ENDBRANCH   2   4
BRANCH   1  22
HETATM   22  C11   D T2601     242.779 172.273 211.930  1.00 54.10     0.085 A 
HETATM   23  C12   D T2601     244.109 172.548 212.242  1.00 44.78     0.023 A 
HETATM   24  C13   D T2601     245.139 171.609 212.018  1.00 45.32     0.071 A 
HETATM   25  C14   D T2601     244.798 170.334 211.468  1.00 49.02     0.015 A 
HETATM   26  C15   D T2601     243.458 170.085 211.168  1.00 60.33    -0.001 A 
HETATM   27  C16   D T2601     242.455 171.038 211.393  1.00 55.57     0.019 A 
BRANCH  24  28
HETATM   28  C25   D T2601     246.578 171.990 212.391  1.00 59.37     0.419 C 
HETATM   29  F26   D T2601     247.409 171.858 211.319  1.00 68.99    -0.166 F 
HETATM   30  F27   D T2601     246.596 173.285 212.810  1.00 54.12    -0.166 F 
HETATM   31  F28   D T2601     247.012 171.188 213.406  1.00 77.73    -0.166 F 
ENDBRANCH  24  28
BRANCH  25  32
HETATM   32  C17   D T2601     245.870 169.219 211.189  1.00 46.42     0.277 C 
BRANCH  32  33
HETATM   33  N18   D T2601     245.401 168.059 211.655  1.00 63.20     0.146 N 
HETATM   34  C19   D T2601     245.728 167.906 212.916  1.00 56.59     0.286 C 
HETATM   35  C20   D T2601     245.562 166.471 213.451  1.00 57.91     0.286 C 
HETATM   36  N21   D T2601     244.861 165.741 212.600  1.00 61.09     0.143 N 
HETATM   37  C22   D T2601     245.505 165.683 211.453  1.00 58.33     0.286 C 
HETATM   38  C24   D T2601     244.714 164.537 213.077  1.00 58.82     0.285 C 
HETATM   39  C23   D T2601     245.750 167.078 210.873  1.00 60.02     0.286 C 
ENDBRANCH  32  33
ENDBRANCH  25  32
ENDBRANCH   1  22
TORSDOF 7
ENDMDL
MODEL 5
REMARK VINA RESULT:    -8.733      2.807      4.526
REMARK INTER + INTRA:         -13.033
REMARK INTER:                 -12.051
REMARK INTRA:                  -0.982
REMARK UNBOUND:                -0.727
REMARK  7 active torsions:
REMARK  status: ('A' for Active; 'I' for Inactive)
REMARK    1  A    between atoms: C13_1  and  C25_22 
REMARK    2  A    between atoms: C17_3  and  C14_7 
REMARK    3  A    between atoms: C17_3  and  N18_34 
REMARK    4  A    between atoms: C11_5  and  N10_10 
REMARK       I    between atoms: N10_10  and  C08_18 
REMARK    5  A    between atoms: C03_13  and  C29_23 
REMARK    6  A    between atoms: C05_15  and  C08_18 
REMARK    7  A    between atoms: C30_24  and  C31_25 
ROOT
HETATM    1  N10   D T2601     242.124 172.334 210.269  1.00 54.54    -0.208 NA
HETATM    2  C08   D T2601     241.524 171.383 209.328  1.00 52.16     0.279 C 
HETATM    3  O09   D T2601     240.417 171.526 208.944  1.00 52.08    -0.265 OA
ENDROOT
BRANCH   2   4
HETATM    4  C05   D T2601     242.341 170.178 208.808  1.00 55.16     0.059 A 
HETATM    5  C04   D T2601     242.727 169.195 209.707  1.00 57.21     0.013 A 
HETATM    6  C03   D T2601     243.456 168.108 209.269  1.00 54.59     0.038 A 
HETATM    7  C02   D T2601     243.805 167.994 207.932  1.00 41.46    -0.014 A 
HETATM    8  C01   D T2601     244.611 166.792 207.459  1.00 47.17     0.032 C 
HETATM    9  C07   D T2601     243.418 168.973 207.029  1.00 46.83    -0.004 A 
HETATM   10  C06   D T2601     242.683 170.069 207.468  1.00 54.40     0.004 A 
BRANCH   6  11
HETATM   11  C29   D T2601     243.871 167.035 210.283  1.00 62.01    -0.060 C 
HETATM   12  C30   D T2601     244.205 166.194 211.064  1.00 59.38    -0.058 C 
BRANCH  12  13
HETATM   13  C31   D T2601     244.630 165.103 212.059  1.00 50.79     0.061 A 
HETATM   14  C32   D T2601     244.331 165.216 213.405  1.00 52.21     0.015 A 
HETATM   15  C33   D T2601     244.729 164.234 214.209  1.00 50.05     0.059 A 
HETATM   16  C34   D T2601     245.439 163.094 213.724  1.00 52.57     0.185 A 
HETATM   17  C37   D T2601     244.659 163.912 215.613  1.00 58.30     0.125 A 
HETATM   18  N35   D T2601     245.616 162.382 214.946  1.00 56.79    -0.129 NA
HETATM   19  N38   D T2601     245.754 162.931 212.442  1.00 60.89    -0.223 NA
HETATM   20  N36   D T2601     245.161 162.844 216.086  1.00 62.69    -0.145 NA
HETATM   21  C39   D T2601     245.347 163.947 211.593  1.00 53.90     0.109 A 
ENDBRANCH  12  13
ENDBRANCH   6  11
ENDBRANCH   2   4
BRANCH   1  22
HETATM   22  C11   D T2601     241.362 173.508 210.776  1.00 54.10     0.085 A 
HETATM   23  C12   D T2601     240.787 173.503 212.045  1.00 44.78     0.023 A 
HETATM   24  C13   D T2601     240.055 174.605 212.539  1.00 45.32     0.071 A 
HETATM   25  C14   D T2601     239.916 175.762 211.712  1.00 49.02     0.015 A 
HETATM   26  C15   D T2601     240.504 175.741 210.447  1.00 60.33    -0.001 A 
HETATM   27  C16   D T2601     241.220 174.631 209.978  1.00 55.57     0.019 A 
BRANCH  24  28
HETATM   28  C25   D T2601     239.455 174.519 213.950  1.00 59.37     0.419 C 
HETATM   29  F26   D T2601     239.481 173.237 214.411  1.00 68.99    -0.166 F 
HETATM   30  F27   D T2601     240.183 175.308 214.786  1.00 54.12    -0.166 F 
HETATM   31  F28   D T2601     238.166 174.968 213.923  1.00 77.73    -0.166 F 
ENDBRANCH  24  28
BRANCH  25  32
HETATM   32  C17   D T2601     239.128 177.042 212.174  1.00 46.42     0.277 C 
BRANCH  32  33
HETATM   33  N18   D T2601     238.338 177.433 211.171  1.00 63.20     0.146 N 
HETATM   34  C19   D T2601     238.410 178.733 211.012  1.00 56.59     0.286 C 
HETATM   35  C20   D T2601     237.288 179.334 210.144  1.00 57.91     0.286 C 
HETATM   36  N21   D T2601     236.634 178.376 209.507  1.00 61.09     0.143 N 
HETATM   37  C22   D T2601     236.085 177.571 210.393  1.00 58.33     0.286 C 
HETATM   38  C24   D T2601     235.703 178.904 208.764  1.00 58.82     0.285 C 
HETATM   39  C23   D T2601     237.134 176.963 211.328  1.00 60.02     0.286 C 
ENDBRANCH  32  33
ENDBRANCH  25  32
ENDBRANCH   1  22
TORSDOF 7
ENDMDL
MODEL 6
REMARK VINA RESULT:    -8.729      1.887      2.801
REMARK INTER + INTRA:         -13.027
REMARK INTER:                 -12.350
REMARK INTRA:                  -0.678
REMARK UNBOUND:                -0.727
REMARK  7 active torsions:
REMARK  status: ('A' for Active; 'I' for Inactive)
REMARK    1  A    between atoms: C13_1  and  C25_22 
REMARK    2  A    between atoms: C17_3  and  C14_7 
REMARK    3  A    between atoms: C17_3  and  N18_34 
REMARK    4  A    between atoms: C11_5  and  N10_10 
REMARK       I    between atoms: N10_10  and  C08_18 
REMARK    5  A    between atoms: C03_13  and  C29_23 
REMARK    6  A    between atoms: C05_15  and  C08_18 
REMARK    7  A    between atoms: C30_24  and  C31_25 
ROOT
HETATM    1  N10   D T2601     241.753 175.632 211.105  1.00 54.54    -0.208 NA
HETATM    2  C08   D T2601     242.072 174.410 210.361  1.00 52.16     0.279 C 
HETATM    3  O09   D T2601     241.321 173.973 209.561  1.00 52.08    -0.265 OA
ENDROOT
BRANCH   2   4
HETATM    4  C05   D T2601     243.412 173.678 210.599  1.00 55.16     0.059 A 
HETATM    5  C04   D T2601     243.386 172.339 210.958  1.00 57.21     0.013 A 
HETATM    6  C03   D T2601     244.569 171.661 211.176  1.00 54.59     0.038 A 
HETATM    7  C02   D T2601     245.785 172.314 211.038  1.00 41.46    -0.014 A 
HETATM    8  C01   D T2601     247.083 171.558 211.282  1.00 47.17     0.032 C 
HETATM    9  C07   D T2601     245.814 173.652 210.676  1.00 46.83    -0.004 A 
HETATM   10  C06   D T2601     244.625 174.337 210.455  1.00 54.40     0.004 A 
BRANCH   6  11
HETATM   11  C29   D T2601     244.514 170.180 211.573  1.00 62.01    -0.060 C 
HETATM   12  C30   D T2601     244.458 169.029 211.888  1.00 59.38    -0.058 C 
BRANCH  12  13
HETATM   13  C31   D T2601     244.388 167.552 212.307  1.00 50.79     0.061 A 
HETATM   14  C32   D T2601     244.708 167.165 213.596  1.00 52.21     0.015 A 
HETATM   15  C33   D T2601     244.624 165.870 213.889  1.00 50.05     0.059 A 
HETATM   16  C34   D T2601     244.220 164.896 212.925  1.00 52.57     0.185 A 
HETATM   17  C37   D T2601     244.843 165.020 215.033  1.00 58.30     0.125 A 
HETATM   18  N35   D T2601     244.298 163.718 213.724  1.00 56.79    -0.129 NA
HETATM   19  N38   D T2601     243.901 165.209 211.672  1.00 60.89    -0.223 NA
HETATM   20  N36   D T2601     244.664 163.763 214.983  1.00 62.69    -0.145 NA
HETATM   21  C39   D T2601     243.985 166.555 211.353  1.00 53.90     0.109 A 
ENDBRANCH  12  13
ENDBRANCH   6  11
ENDBRANCH   2   4
BRANCH   1  22
HETATM   22  C11   D T2601     240.473 176.361 210.886  1.00 54.10     0.085 A 
HETATM   23  C12   D T2601     239.421 176.265 211.793  1.00 44.78     0.023 A 
HETATM   24  C13   D T2601     238.199 176.944 211.597  1.00 45.32     0.071 A 
HETATM   25  C14   D T2601     238.050 177.765 210.438  1.00 49.02     0.015 A 
HETATM   26  C15   D T2601     239.120 177.847 209.546  1.00 60.33    -0.001 A 
HETATM   27  C16   D T2601     240.321 177.156 209.761  1.00 55.57     0.019 A 
BRANCH  24  28
HETATM   28  C25   D T2601     237.090 176.784 212.647  1.00 59.37     0.419 C 
HETATM   29  F26   D T2601     237.492 175.962 213.656  1.00 68.99    -0.166 F 
HETATM   30  F27   D T2601     236.793 178.009 213.162  1.00 54.12    -0.166 F 
HETATM   31  F28   D T2601     235.974 176.269 212.055  1.00 77.73    -0.166 F 
ENDBRANCH  24  28
BRANCH  25  32
HETATM   32  C17   D T2601     236.732 178.567 210.134  1.00 46.42     0.277 C 
BRANCH  32  33
HETATM   33  N18   D T2601     236.820 179.068 208.900  1.00 63.20     0.146 N 
HETATM   34  C19   D T2601     237.143 180.339 208.942  1.00 56.59     0.286 C 
HETATM   35  C20   D T2601     236.921 181.101 207.622  1.00 57.91     0.286 C 
HETATM   36  N21   D T2601     236.705 180.252 206.631  1.00 61.09     0.143 N 
HETATM   37  C22   D T2601     235.620 179.553 206.893  1.00 58.33     0.286 C 
HETATM   38  C24   D T2601     236.539 180.913 205.520  1.00 58.82     0.285 C 
HETATM   39  C23   D T2601     235.744 178.796 208.218  1.00 60.02     0.286 C 
ENDBRANCH  32  33
ENDBRANCH  25  32
ENDBRANCH   1  22
TORSDOF 7
ENDMDL
MODEL 7
REMARK VINA RESULT:    -8.640      6.293     10.881
REMARK INTER + INTRA:         -12.902
REMARK INTER:                 -12.138
REMARK INTRA:                  -0.764
REMARK UNBOUND:                -0.727
REMARK  7 active torsions:
REMARK  status: ('A' for Active; 'I' for Inactive)
REMARK    1  A    between atoms: C13_1  and  C25_22 
REMARK    2  A    between atoms: C17_3  and  C14_7 
REMARK    3  A    between atoms: C17_3  and  N18_34 
REMARK    4  A    between atoms: C11_5  and  N10_10 
REMARK       I    between atoms: N10_10  and  C08_18 
REMARK    5  A    between atoms: C03_13  and  C29_23 
REMARK    6  A    between atoms: C05_15  and  C08_18 
REMARK    7  A    between atoms: C30_24  and  C31_25 
ROOT
HETATM    1  N10   D T2601     242.632 175.529 208.782  1.00 54.54    -0.208 NA
HETATM    2  C08   D T2601     243.607 176.518 208.311  1.00 52.16     0.279 C 
HETATM    3  O09   D T2601     243.859 177.476 208.953  1.00 52.08    -0.265 OA
ENDROOT
BRANCH   2   4
HETATM    4  C05   D T2601     244.339 176.312 206.965  1.00 55.16     0.059 A 
HETATM    5  C04   D T2601     243.947 177.068 205.870  1.00 57.21     0.013 A 
HETATM    6  C03   D T2601     244.585 176.905 204.657  1.00 54.59     0.038 A 
HETATM    7  C02   D T2601     245.617 175.988 204.527  1.00 41.46    -0.014 A 
HETATM    8  C01   D T2601     246.312 175.814 203.184  1.00 47.17     0.032 C 
HETATM    9  C07   D T2601     246.012 175.232 205.621  1.00 46.83    -0.004 A 
HETATM   10  C06   D T2601     245.373 175.394 206.844  1.00 54.40     0.004 A 
BRANCH   6  11
HETATM   11  C29   D T2601     244.133 177.753 203.461  1.00 62.01    -0.060 C 
HETATM   12  C30   D T2601     243.768 178.410 202.533  1.00 59.38    -0.058 C 
BRANCH  12  13
HETATM   13  C31   D T2601     243.293 179.245 201.333  1.00 50.79     0.061 A 
HETATM   14  C32   D T2601     243.793 180.516 201.111  1.00 52.21     0.015 A 
HETATM   15  C33   D T2601     243.337 181.181 200.053  1.00 50.05     0.059 A 
HETATM   16  C34   D T2601     242.368 180.624 199.164  1.00 52.57     0.185 A 
HETATM   17  C37   D T2601     243.542 182.467 199.434  1.00 58.30     0.125 A 
HETATM   18  N35   D T2601     242.235 181.705 198.244  1.00 56.79    -0.129 NA
HETATM   19  N38   D T2601     241.852 179.409 199.327  1.00 60.89    -0.223 NA
HETATM   20  N36   D T2601     242.924 182.814 198.379  1.00 62.69    -0.145 NA
HETATM   21  C39   D T2601     242.317 178.705 200.426  1.00 53.90     0.109 A 
ENDBRANCH  12  13
ENDBRANCH   6  11
ENDBRANCH   2   4
BRANCH   1  22
HETATM   22  C11   D T2601     241.922 175.699 210.080  1.00 54.10     0.085 A 
HETATM   23  C12   D T2601     240.600 176.135 210.129  1.00 44.78     0.023 A 
HETATM   24  C13   D T2601     239.914 176.308 211.351  1.00 45.32     0.071 A 
HETATM   25  C14   D T2601     240.598 176.011 212.569  1.00 49.02     0.015 A 
HETATM   26  C15   D T2601     241.921 175.574 212.492  1.00 60.33    -0.001 A 
HETATM   27  C16   D T2601     242.582 175.417 211.265  1.00 55.57     0.019 A 
BRANCH  24  28
HETATM   28  C25   D T2601     238.457 176.791 211.317  1.00 59.37     0.419 C 
HETATM   29  F26   D T2601     238.314 177.953 212.014  1.00 68.99    -0.166 F 
HETATM   30  F27   D T2601     238.094 177.002 210.021  1.00 54.12    -0.166 F 
HETATM   31  F28   D T2601     237.648 175.833 211.855  1.00 77.73    -0.166 F 
ENDBRANCH  24  28
BRANCH  25  32
HETATM   32  C17   D T2601     239.920 176.164 213.980  1.00 46.42     0.277 C 
BRANCH  32  33
HETATM   33  N18   D T2601     239.495 174.962 214.374  1.00 63.20     0.146 N 
HETATM   34  C19   D T2601     238.354 175.067 215.014  1.00 56.59     0.286 C 
HETATM   35  C20   D T2601     237.955 173.816 215.820  1.00 57.91     0.286 C 
HETATM   36  N21   D T2601     238.714 172.787 215.480  1.00 61.09     0.143 N 
HETATM   37  C22   D T2601     239.971 173.072 215.752  1.00 58.33     0.286 C 
HETATM   38  C24   D T2601     238.350 171.735 216.156  1.00 58.82     0.285 C 
HETATM   39  C23   D T2601     240.434 174.335 215.021  1.00 60.02     0.286 C 
ENDBRANCH  32  33
ENDBRANCH  25  32
ENDBRANCH   1  22
TORSDOF 7
ENDMDL
MODEL 8
REMARK VINA RESULT:    -8.174      2.399      3.265
REMARK INTER + INTRA:         -12.246
REMARK INTER:                 -11.757
REMARK INTRA:                  -0.489
REMARK UNBOUND:                -0.727
REMARK  7 active torsions:
REMARK  status: ('A' for Active; 'I' for Inactive)
REMARK    1  A    between atoms: C13_1  and  C25_22 
REMARK    2  A    between atoms: C17_3  and  C14_7 
REMARK    3  A    between atoms: C17_3  and  N18_34 
REMARK    4  A    between atoms: C11_5  and  N10_10 
REMARK       I    between atoms: N10_10  and  C08_18 
REMARK    5  A    between atoms: C03_13  and  C29_23 
REMARK    6  A    between atoms: C05_15  and  C08_18 
REMARK    7  A    between atoms: C30_24  and  C31_25 
ROOT
HETATM    1  N10   D T2601     241.182 173.308 211.727  1.00 54.54    -0.208 NA
HETATM    2  C08   D T2601     241.611 172.682 210.472  1.00 52.16     0.279 C 
HETATM    3  O09   D T2601     241.362 173.179 209.429  1.00 52.08    -0.265 OA
ENDROOT
BRANCH   2   4
HETATM    4  C05   D T2601     242.415 171.362 210.493  1.00 55.16     0.059 A 
HETATM    5  C04   D T2601     242.793 170.792 209.287  1.00 57.21     0.013 A 
HETATM    6  C03   D T2601     243.513 169.614 209.277  1.00 54.59     0.038 A 
HETATM    7  C02   D T2601     243.860 168.997 210.470  1.00 41.46    -0.014 A 
HETATM    8  C01   D T2601     244.652 167.697 210.448  1.00 47.17     0.032 C 
HETATM    9  C07   D T2601     243.486 169.566 211.678  1.00 46.83    -0.004 A 
HETATM   10  C06   D T2601     242.761 170.753 211.691  1.00 54.40     0.004 A 
BRANCH   6  11
HETATM   11  C29   D T2601     243.919 169.003 207.930  1.00 62.01    -0.060 C 
HETATM   12  C30   D T2601     244.249 168.526 206.886  1.00 59.38    -0.058 C 
BRANCH  12  13
HETATM   13  C31   D T2601     244.681 167.925 205.539  1.00 50.79     0.061 A 
HETATM   14  C32   D T2601     244.691 166.556 205.344  1.00 52.21     0.015 A 
HETATM   15  C33   D T2601     245.075 166.106 204.153  1.00 50.05     0.059 A 
HETATM   16  C34   D T2601     245.467 166.984 203.097  1.00 52.57     0.185 A 
HETATM   17  C37   D T2601     245.245 164.831 203.500  1.00 58.30     0.125 A 
HETATM   18  N35   D T2601     245.770 166.026 202.086  1.00 56.79    -0.129 NA
HETATM   19  N38   D T2601     245.477 168.308 203.226  1.00 60.89    -0.223 NA
HETATM   20  N36   D T2601     245.646 164.738 202.297  1.00 62.69    -0.145 NA
HETATM   21  C39   D T2601     245.080 168.791 204.462  1.00 53.90     0.109 A 
ENDBRANCH  12  13
ENDBRANCH   6  11
ENDBRANCH   2   4
BRANCH   1  22
HETATM   22  C11   D T2601     240.416 174.585 211.733  1.00 54.10     0.085 A 
HETATM   23  C12   D T2601     239.510 174.879 212.749  1.00 44.78     0.023 A 
HETATM   24  C13   D T2601     238.770 176.081 212.767  1.00 45.32     0.071 A 
HETATM   25  C14   D T2601     238.974 177.027 211.715  1.00 49.02     0.015 A 
HETATM   26  C15   D T2601     239.889 176.709 210.711  1.00 60.33    -0.001 A 
HETATM   27  C16   D T2601     240.605 175.504 210.714  1.00 55.57     0.019 A 
BRANCH  24  28
HETATM   28  C25   D T2601     237.793 176.329 213.925  1.00 59.37     0.419 C 
HETATM   29  F26   D T2601     237.792 175.278 214.793  1.00 68.99    -0.166 F 
HETATM   30  F27   D T2601     238.175 177.454 214.589  1.00 54.12    -0.166 F 
HETATM   31  F28   D T2601     236.536 176.511 213.427  1.00 77.73    -0.166 F 
ENDBRANCH  24  28
BRANCH  25  32
HETATM   32  C17   D T2601     238.205 178.397 211.650  1.00 46.42     0.277 C 
BRANCH  32  33
HETATM   33  N18   D T2601     237.720 178.549 210.415  1.00 63.20     0.146 N 
HETATM   34  C19   D T2601     237.995 179.748 209.959  1.00 56.59     0.286 C 
HETATM   35  C20   D T2601     237.187 180.159 208.713  1.00 57.91     0.286 C 
HETATM   36  N21   D T2601     236.575 179.108 208.193  1.00 61.09     0.143 N 
HETATM   37  C22   D T2601     235.740 178.613 209.083  1.00 58.33     0.286 C 
HETATM   38  C24   D T2601     235.914 179.470 207.131  1.00 58.82     0.285 C 
HETATM   39  C23   D T2601     236.461 178.219 210.375  1.00 60.02     0.286 C 
ENDBRANCH  32  33
ENDBRANCH  25  32
ENDBRANCH   1  22
TORSDOF 7
ENDMDL
MODEL 9
REMARK VINA RESULT:    -8.158      3.883     12.196
REMARK INTER + INTRA:         -12.224
REMARK INTER:                 -11.335
REMARK INTRA:                  -0.889
REMARK UNBOUND:                -0.727
REMARK  7 active torsions:
REMARK  status: ('A' for Active; 'I' for Inactive)
REMARK    1  A    between atoms: C13_1  and  C25_22 
REMARK    2  A    between atoms: C17_3  and  C14_7 
REMARK    3  A    between atoms: C17_3  and  N18_34 
REMARK    4  A    between atoms: C11_5  and  N10_10 
REMARK       I    between atoms: N10_10  and  C08_18 
REMARK    5  A    between atoms: C03_13  and  C29_23 
REMARK    6  A    between atoms: C05_15  and  C08_18 
REMARK    7  A    between atoms: C30_24  and  C31_25 
ROOT
HETATM    1  N10   D T2601     241.458 172.418 210.798  1.00 54.54    -0.208 NA
HETATM    2  C08   D T2601     241.162 172.547 212.228  1.00 52.16     0.279 C 
HETATM    3  O09   D T2601     241.545 171.741 213.003  1.00 52.08    -0.265 OA
ENDROOT
BRANCH   2   4
HETATM    4  C05   D T2601     240.353 173.755 212.752  1.00 55.16     0.059 A 
HETATM    5  C04   D T2601     239.932 174.718 211.848  1.00 57.21     0.013 A 
HETATM    6  C03   D T2601     239.207 175.807 212.289  1.00 54.59     0.038 A 
HETATM    7  C02   D T2601     238.898 175.942 213.635  1.00 41.46    -0.014 A 
HETATM    8  C01   D T2601     238.100 177.148 214.111  1.00 47.17     0.032 C 
HETATM    9  C07   D T2601     239.316 174.979 214.541  1.00 46.83    -0.004 A 
HETATM   10  C06   D T2601     240.045 173.882 214.100  1.00 54.40     0.004 A 
BRANCH   6  11
HETATM   11  C29   D T2601     238.752 176.859 211.270  1.00 62.01    -0.060 C 
HETATM   12  C30   D T2601     238.384 177.674 210.477  1.00 59.38    -0.058 C 
BRANCH  12  13
HETATM   13  C31   D T2601     237.908 178.711 209.449  1.00 50.79     0.061 A 
HETATM   14  C32   D T2601     237.620 178.339 208.148  1.00 52.21     0.015 A 
HETATM   15  C33   D T2601     237.212 179.290 207.312  1.00 50.05     0.059 A 
HETATM   16  C34   D T2601     237.069 180.652 207.718  1.00 52.57     0.185 A 
HETATM   17  C37   D T2601     236.813 179.393 205.930  1.00 58.30     0.125 A 
HETATM   18  N35   D T2601     236.625 181.225 206.490  1.00 56.79    -0.129 NA
HETATM   19  N38   D T2601     237.331 181.068 208.953  1.00 60.89    -0.223 NA
HETATM   20  N36   D T2601     236.461 180.499 205.410  1.00 62.69    -0.145 NA
HETATM   21  C39   D T2601     237.758 180.088 209.836  1.00 53.90     0.109 A 
ENDBRANCH  12  13
ENDBRANCH   6  11
ENDBRANCH   2   4
BRANCH   1  22
HETATM   22  C11   D T2601     242.244 171.268 210.270  1.00 54.10     0.085 A 
HETATM   23  C12   D T2601     243.494 170.946 210.794  1.00 44.78     0.023 A 
HETATM   24  C13   D T2601     244.256 169.864 210.302  1.00 45.32     0.071 A 
HETATM   25  C14   D T2601     243.714 169.071 209.243  1.00 49.02     0.015 A 
HETATM   26  C15   D T2601     242.459 169.414 208.739  1.00 60.33    -0.001 A 
HETATM   27  C16   D T2601     241.727 170.498 209.241  1.00 55.57     0.019 A 
BRANCH  24  28
HETATM   28  C25   D T2601     245.623 169.576 210.936  1.00 59.37     0.419 C 
HETATM   29  F26   D T2601     246.627 169.774 210.036  1.00 68.99    -0.166 F 
HETATM   30  F27   D T2601     245.803 170.413 211.994  1.00 54.12    -0.166 F 
HETATM   31  F28   D T2601     245.656 168.285 211.379  1.00 77.73    -0.166 F 
ENDBRANCH  24  28
BRANCH  25  32
HETATM   32  C17   D T2601     244.480 167.841 208.632  1.00 46.42     0.277 C 
BRANCH  32  33
HETATM   33  N18   D T2601     244.614 168.040 207.319  1.00 63.20     0.146 N 
HETATM   34  C19   D T2601     244.360 166.934 206.659  1.00 56.59     0.286 C 
HETATM   35  C20   D T2601     244.828 166.942 205.192  1.00 57.91     0.286 C 
HETATM   36  N21   D T2601     245.146 168.170 204.816  1.00 61.09     0.143 N 
HETATM   37  C22   D T2601     246.136 168.606 205.568  1.00 58.33     0.286 C 
HETATM   38  C24   D T2601     245.521 168.161 203.568  1.00 58.82     0.285 C 
HETATM   39  C23   D T2601     245.765 168.588 207.054  1.00 60.02     0.286 C 
ENDBRANCH  32  33
ENDBRANCH  25  32
ENDBRANCH   1  22
TORSDOF 7
ENDMDL
