MODEL 1
REMARK VINA RESULT:      -8.1      0.000      0.000
REMARK  7 active torsions:
REMARK  status: ('A' for Active; 'I' for Inactive)
REMARK    1  A    between atoms: C13_1  and  C25_22 
REMARK    2  A    between atoms: C17_3  and  C14_7 
REMARK    3  A    between atoms: C17_3  and  N18_34 
REMARK    4  A    between atoms: C11_5  and  N10_10 
REMARK       I    between atoms: N10_10  and  C08_18 
REMARK    5  A    between atoms: C03_13  and  C29_23 
REMARK    6  A    between atoms: C05_15  and  C08_18 
REMARK    7  A    between atoms: C30_24  and  C31_25 
ROOT
HETATM    1  N10   D T2601     243.066 170.918 212.931  1.00 54.54    -0.208 NA
HETATM    2  C08   D T2601     243.146 169.535 212.450  1.00 52.16     0.279 C 
HETATM    3  O09   D T2601     242.278 169.066 211.801  1.00 52.08    -0.265 OA
ENDROOT
BRANCH   2   4
HETATM    4  C05   D T2601     244.383 168.667 212.774  1.00 55.16     0.059 A 
HETATM    5  C04   D T2601     244.945 167.902 211.763  1.00 57.21     0.013 A 
HETATM    6  C03   D T2601     246.051 167.118 212.024  1.00 54.59     0.038 A 
HETATM    7  C02   D T2601     246.604 167.092 213.296  1.00 41.46    -0.014 A 
HETATM    8  C01   D T2601     247.822 166.223 213.575  1.00 47.17     0.032 C 
HETATM    9  C07   D T2601     246.046 167.858 214.309  1.00 46.83    -0.004 A 
HETATM   10  C06   D T2601     244.933 168.649 214.048  1.00 54.40     0.004 A 
BRANCH   6  11
HETATM   11  C29   D T2601     246.653 166.281 210.889  1.00 62.01    -0.060 C 
HETATM   12  C30   D T2601     247.115 165.636 209.996  1.00 59.38    -0.058 C 
BRANCH  12  13
HETATM   13  C31   D T2601     247.696 164.802 208.843  1.00 50.79     0.061 A 
HETATM   14  C32   D T2601     247.862 163.434 208.972  1.00 52.21     0.015 A 
HETATM   15  C33   D T2601     248.370 162.776 207.934  1.00 50.05     0.059 A 
HETATM   16  C34   D T2601     248.738 163.433 206.721  1.00 52.57     0.185 A 
HETATM   17  C37   D T2601     248.714 161.415 207.601  1.00 58.30     0.125 A 
HETATM   18  N35   D T2601     249.207 162.314 205.972  1.00 56.79    -0.129 NA
HETATM   19  N38   D T2601     248.602 164.744 206.540  1.00 60.89    -0.223 NA
HETATM   20  N36   D T2601     249.203 161.101 206.470  1.00 62.69    -0.145 NA
HETATM   21  C39   D T2601     248.075 165.443 207.614  1.00 53.90     0.109 A 
ENDBRANCH  12  13
ENDBRANCH   6  11
ENDBRANCH   2   4
BRANCH   1  22
HETATM   22  C11   D T2601     241.890 171.778 212.623  1.00 54.10     0.085 A 
HETATM   23  C12   D T2601     240.905 172.024 213.577  1.00 44.78     0.023 A 
HETATM   24  C13   D T2601     239.780 172.831 213.301  1.00 45.32     0.071 A 
HETATM   25  C14   D T2601     239.662 173.422 212.005  1.00 49.02     0.015 A 
HETATM   26  C15   D T2601     240.664 173.162 211.069  1.00 60.33    -0.001 A 
HETATM   27  C16   D T2601     241.767 172.350 211.368  1.00 55.57     0.019 A 
BRANCH  24  28
HETATM   28  C25   D T2601     238.741 173.053 214.409  1.00 59.37     0.419 C 
HETATM   29  F26   D T2601     237.501 172.668 213.997  1.00 68.99    -0.166 F 
HETATM   30  F27   D T2601     239.096 172.317 215.498  1.00 54.12    -0.166 F 
HETATM   31  F28   D T2601     238.719 174.373 214.753  1.00 77.73    -0.166 F 
ENDBRANCH  24  28
BRANCH  25  32
HETATM   32  C17   D T2601     238.452 174.342 211.603  1.00 46.42     0.277 C 
BRANCH  32  33
HETATM   33  N18   D T2601     238.764 174.974 210.469  1.00 63.20     0.146 N 
HETATM   34  C19   D T2601     238.452 176.246 210.553  1.00 56.59     0.286 C 
HETATM   35  C20   D T2601     238.427 176.989 209.204  1.00 57.91     0.286 C 
HETATM   36  N21   D T2601     238.995 176.254 208.262  1.00 61.09     0.143 N 
HETATM   37  C22   D T2601     238.320 175.131 208.128  1.00 58.33     0.286 C 
HETATM   38  C24   D T2601     238.983 176.905 207.134  1.00 58.82     0.285 C 
HETATM   39  C23   D T2601     238.260 174.350 209.444  1.00 60.02     0.286 C 
ENDBRANCH  32  33
ENDBRANCH  25  32
ENDBRANCH   1  22
TORSDOF 7
ENDMDL
MODEL 2
REMARK VINA RESULT:      -7.8      3.889      5.349
REMARK  7 active torsions:
REMARK  status: ('A' for Active; 'I' for Inactive)
REMARK    1  A    between atoms: C13_1  and  C25_22 
REMARK    2  A    between atoms: C17_3  and  C14_7 
REMARK    3  A    between atoms: C17_3  and  N18_34 
REMARK    4  A    between atoms: C11_5  and  N10_10 
REMARK       I    between atoms: N10_10  and  C08_18 
REMARK    5  A    between atoms: C03_13  and  C29_23 
REMARK    6  A    between atoms: C05_15  and  C08_18 
REMARK    7  A    between atoms: C30_24  and  C31_25 
ROOT
HETATM    1  N10   D T2601     243.120 171.590 212.532  1.00 54.54    -0.208 NA
HETATM    2  C08   D T2601     243.135 170.155 212.233  1.00 52.16     0.279 C 
HETATM    3  O09   D T2601     242.148 169.590 211.915  1.00 52.08    -0.265 OA
ENDROOT
BRANCH   2   4
HETATM    4  C05   D T2601     244.456 169.355 212.313  1.00 55.16     0.059 A 
HETATM    5  C04   D T2601     244.508 168.233 213.126  1.00 57.21     0.013 A 
HETATM    6  C03   D T2601     245.675 167.500 213.214  1.00 54.59     0.038 A 
HETATM    7  C02   D T2601     246.796 167.881 212.493  1.00 41.46    -0.014 A 
HETATM    8  C01   D T2601     248.078 167.068 212.599  1.00 47.17     0.032 C 
HETATM    9  C07   D T2601     246.746 169.001 211.676  1.00 46.83    -0.004 A 
HETATM   10  C06   D T2601     245.573 169.741 211.585  1.00 54.40     0.004 A 
BRANCH   6  11
HETATM   11  C29   D T2601     245.708 166.264 214.121  1.00 62.01    -0.060 C 
HETATM   12  C30   D T2601     245.720 165.302 214.830  1.00 59.38    -0.058 C 
BRANCH  12  13
HETATM   13  C31   D T2601     245.732 164.073 215.753  1.00 50.79     0.061 A 
HETATM   14  C32   D T2601     245.344 164.177 217.076  1.00 52.21     0.015 A 
HETATM   15  C33   D T2601     245.379 163.072 217.816  1.00 50.05     0.059 A 
HETATM   16  C34   D T2601     245.798 161.814 217.287  1.00 52.57     0.185 A 
HETATM   17  C37   D T2601     245.086 162.691 219.176  1.00 58.30     0.125 A 
HETATM   18  N35   D T2601     245.653 161.002 218.450  1.00 56.79    -0.129 NA
HETATM   19  N38   D T2601     246.182 161.654 216.024  1.00 60.89    -0.223 NA
HETATM   20  N36   D T2601     245.230 161.497 219.588  1.00 62.69    -0.145 NA
HETATM   21  C39   D T2601     246.151 162.797 215.241  1.00 53.90     0.109 A 
ENDBRANCH  12  13
ENDBRANCH   6  11
ENDBRANCH   2   4
BRANCH   1  22
HETATM   22  C11   D T2601     241.863 172.384 212.452  1.00 54.10     0.085 A 
HETATM   23  C12   D T2601     240.820 172.181 213.353  1.00 44.78     0.023 A 
HETATM   24  C13   D T2601     239.619 172.920 213.288  1.00 45.32     0.071 A 
HETATM   25  C14   D T2601     239.482 173.916 212.272  1.00 49.02     0.015 A 
HETATM   26  C15   D T2601     240.542 174.101 211.384  1.00 60.33    -0.001 A 
HETATM   27  C16   D T2601     241.721 173.348 211.467  1.00 55.57     0.019 A 
BRANCH  24  28
HETATM   28  C25   D T2601     238.520 172.634 214.321  1.00 59.37     0.419 C 
HETATM   29  F26   D T2601     237.301 173.025 213.854  1.00 68.99    -0.166 F 
HETATM   30  F27   D T2601     238.492 171.297 214.575  1.00 54.12    -0.166 F 
HETATM   31  F28   D T2601     238.800 173.301 215.478  1.00 77.73    -0.166 F 
ENDBRANCH  24  28
BRANCH  25  32
HETATM   32  C17   D T2601     238.188 174.796 212.121  1.00 46.42     0.277 C 
BRANCH  32  33
HETATM   33  N18   D T2601     238.345 175.596 211.064  1.00 63.20     0.146 N 
HETATM   34  C19   D T2601     237.833 176.780 211.305  1.00 56.59     0.286 C 
HETATM   35  C20   D T2601     237.631 177.656 210.054  1.00 57.91     0.286 C 
HETATM   36  N21   D T2601     238.272 177.138 209.020  1.00 61.09     0.143 N 
HETATM   37  C22   D T2601     237.785 175.941 208.769  1.00 58.33     0.286 C 
HETATM   38  C24   D T2601     238.107 177.902 207.978  1.00 58.82     0.285 C 
HETATM   39  C23   D T2601     237.908 175.016 209.983  1.00 60.02     0.286 C 
ENDBRANCH  32  33
ENDBRANCH  25  32
ENDBRANCH   1  22
TORSDOF 7
ENDMDL
MODEL 3
REMARK VINA RESULT:      -7.5      4.946      5.796
REMARK  7 active torsions:
REMARK  status: ('A' for Active; 'I' for Inactive)
REMARK    1  A    between atoms: C13_1  and  C25_22 
REMARK    2  A    between atoms: C17_3  and  C14_7 
REMARK    3  A    between atoms: C17_3  and  N18_34 
REMARK    4  A    between atoms: C11_5  and  N10_10 
REMARK       I    between atoms: N10_10  and  C08_18 
REMARK    5  A    between atoms: C03_13  and  C29_23 
REMARK    6  A    between atoms: C05_15  and  C08_18 
REMARK    7  A    between atoms: C30_24  and  C31_25 
ROOT
HETATM    1  N10   D T2601     243.054 172.157 211.744  1.00 54.54    -0.208 NA
HETATM    2  C08   D T2601     243.092 170.744 212.136  1.00 52.16     0.279 C 
HETATM    3  O09   D T2601     242.110 170.088 212.140  1.00 52.08    -0.265 OA
ENDROOT
BRANCH   2   4
HETATM    4  C05   D T2601     244.430 170.082 212.537  1.00 55.16     0.059 A 
HETATM    5  C04   D T2601     244.398 168.883 213.233  1.00 57.21     0.013 A 
HETATM    6  C03   D T2601     245.578 168.269 213.602  1.00 54.59     0.038 A 
HETATM    7  C02   D T2601     246.797 168.847 213.279  1.00 41.46    -0.014 A 
HETATM    8  C01   D T2601     248.093 168.163 213.693  1.00 47.17     0.032 C 
HETATM    9  C07   D T2601     246.832 170.044 212.581  1.00 46.83    -0.004 A 
HETATM   10  C06   D T2601     245.646 170.664 212.207  1.00 54.40     0.004 A 
BRANCH   6  11
HETATM   11  C29   D T2601     245.518 166.944 214.372  1.00 62.01    -0.060 C 
HETATM   12  C30   D T2601     245.464 165.919 214.983  1.00 59.38    -0.058 C 
BRANCH  12  13
HETATM   13  C31   D T2601     245.404 164.605 215.777  1.00 50.79     0.061 A 
HETATM   14  C32   D T2601     246.542 164.075 216.358  1.00 52.21     0.015 A 
HETATM   15  C33   D T2601     246.416 162.935 217.032  1.00 50.05     0.059 A 
HETATM   16  C34   D T2601     245.162 162.264 217.165  1.00 52.57     0.185 A 
HETATM   17  C37   D T2601     247.266 162.037 217.775  1.00 58.30     0.125 A 
HETATM   18  N35   D T2601     245.570 161.143 217.946  1.00 56.79    -0.129 NA
HETATM   19  N38   D T2601     244.036 162.725 216.629  1.00 60.89    -0.223 NA
HETATM   20  N36   D T2601     246.816 160.983 218.325  1.00 62.69    -0.145 NA
HETATM   21  C39   D T2601     244.152 163.912 215.923  1.00 53.90     0.109 A 
ENDBRANCH  12  13
ENDBRANCH   6  11
ENDBRANCH   2   4
BRANCH   1  22
HETATM   22  C11   D T2601     241.780 172.815 211.344  1.00 54.10     0.085 A 
HETATM   23  C12   D T2601     241.270 172.680 210.055  1.00 44.78     0.023 A 
HETATM   24  C13   D T2601     240.066 173.302 209.657  1.00 45.32     0.071 A 
HETATM   25  C14   D T2601     239.348 174.081 210.615  1.00 49.02     0.015 A 
HETATM   26  C15   D T2601     239.880 174.199 211.900  1.00 60.33    -0.001 A 
HETATM   27  C16   D T2601     241.080 173.576 212.267  1.00 55.57     0.019 A 
BRANCH  24  28
HETATM   28  C25   D T2601     239.573 173.101 208.217  1.00 59.37     0.419 C 
HETATM   29  F26   D T2601     239.759 174.230 207.477  1.00 68.99    -0.166 F 
HETATM   30  F27   D T2601     240.272 172.078 207.652  1.00 54.12    -0.166 F 
HETATM   31  F28   D T2601     238.247 172.779 208.232  1.00 77.73    -0.166 F 
ENDBRANCH  24  28
BRANCH  25  32
HETATM   32  C17   D T2601     237.996 174.807 210.272  1.00 46.42     0.277 C 
BRANCH  32  33
HETATM   33  N18   D T2601     238.211 176.125 210.288  1.00 63.20     0.146 N 
HETATM   34  C19   D T2601     237.170 176.753 210.780  1.00 56.59     0.286 C 
HETATM   35  C20   D T2601     237.153 178.271 210.514  1.00 57.91     0.286 C 
HETATM   36  N21   D T2601     238.335 178.675 210.078  1.00 61.09     0.143 N 
HETATM   37  C22   D T2601     238.608 178.059 208.946  1.00 58.33     0.286 C 
HETATM   38  C24   D T2601     238.309 179.962 209.878  1.00 58.82     0.285 C 
HETATM   39  C23   D T2601     238.600 176.538 209.116  1.00 60.02     0.286 C 
ENDBRANCH  32  33
ENDBRANCH  25  32
ENDBRANCH   1  22
TORSDOF 7
ENDMDL
MODEL 4
REMARK VINA RESULT:      -7.3      2.578      3.407
REMARK  7 active torsions:
REMARK  status: ('A' for Active; 'I' for Inactive)
REMARK    1  A    between atoms: C13_1  and  C25_22 
REMARK    2  A    between atoms: C17_3  and  C14_7 
REMARK    3  A    between atoms: C17_3  and  N18_34 
REMARK    4  A    between atoms: C11_5  and  N10_10 
REMARK       I    between atoms: N10_10  and  C08_18 
REMARK    5  A    between atoms: C03_13  and  C29_23 
REMARK    6  A    between atoms: C05_15  and  C08_18 
REMARK    7  A    between atoms: C30_24  and  C31_25 
ROOT
HETATM    1  N10   D T2601     241.408 171.319 212.224  1.00 54.54    -0.208 NA
HETATM    2  C08   D T2601     242.856 171.395 212.009  1.00 52.16     0.279 C 
HETATM    3  O09   D T2601     243.318 172.179 211.255  1.00 52.08    -0.265 OA
ENDROOT
BRANCH   2   4
HETATM    4  C05   D T2601     243.811 170.456 212.781  1.00 55.16     0.059 A 
HETATM    5  C04   D T2601     244.413 169.409 212.099  1.00 57.21     0.013 A 
HETATM    6  C03   D T2601     245.271 168.556 212.764  1.00 54.59     0.038 A 
HETATM    7  C02   D T2601     245.533 168.741 214.114  1.00 41.46    -0.014 A 
HETATM    8  C01   D T2601     246.478 167.794 214.839  1.00 47.17     0.032 C 
HETATM    9  C07   D T2601     244.934 169.789 214.798  1.00 46.83    -0.004 A 
HETATM   10  C06   D T2601     244.071 170.650 214.130  1.00 54.40     0.004 A 
BRANCH   6  11
HETATM   11  C29   D T2601     245.924 167.406 211.989  1.00 62.01    -0.060 C 
HETATM   12  C30   D T2601     246.442 166.508 211.395  1.00 59.38    -0.058 C 
BRANCH  12  13
HETATM   13  C31   D T2601     247.120 165.359 210.631  1.00 50.79     0.061 A 
HETATM   14  C32   D T2601     247.325 165.440 209.265  1.00 52.21     0.015 A 
HETATM   15  C33   D T2601     247.918 164.410 208.670  1.00 50.05     0.059 A 
HETATM   16  C34   D T2601     248.338 163.251 209.392  1.00 52.57     0.185 A 
HETATM   17  C37   D T2601     248.329 164.042 207.337  1.00 58.30     0.125 A 
HETATM   18  N35   D T2601     248.890 162.486 208.322  1.00 56.79    -0.129 NA
HETATM   19  N38   D T2601     248.169 163.118 210.704  1.00 60.89    -0.223 NA
HETATM   20  N36   D T2601     248.899 162.933 207.089  1.00 62.69    -0.145 NA
HETATM   21  C39   D T2601     247.550 164.184 211.338  1.00 53.90     0.109 A 
ENDBRANCH  12  13
ENDBRANCH   6  11
ENDBRANCH   2   4
BRANCH   1  22
HETATM   22  C11   D T2601     240.469 172.220 211.501  1.00 54.10     0.085 A 
HETATM   23  C12   D T2601     240.648 172.518 210.152  1.00 44.78     0.023 A 
HETATM   24  C13   D T2601     239.772 173.375 209.452  1.00 45.32     0.071 A 
HETATM   25  C14   D T2601     238.660 173.939 210.151  1.00 49.02     0.015 A 
HETATM   26  C15   D T2601     238.503 173.622 211.501  1.00 60.33    -0.001 A 
HETATM   27  C16   D T2601     239.392 172.774 212.174  1.00 55.57     0.019 A 
BRANCH  24  28
HETATM   28  C25   D T2601     240.040 173.651 207.965  1.00 59.37     0.419 C 
HETATM   29  F26   D T2601     240.722 174.819 207.803  1.00 68.99    -0.166 F 
HETATM   30  F27   D T2601     240.780 172.628 207.455  1.00 54.12    -0.166 F 
HETATM   31  F28   D T2601     238.853 173.719 207.295  1.00 77.73    -0.166 F 
ENDBRANCH  24  28
BRANCH  25  32
HETATM   32  C17   D T2601     237.624 174.898 209.460  1.00 46.42     0.277 C 
BRANCH  32  33
HETATM   33  N18   D T2601     237.985 176.158 209.712  1.00 63.20     0.146 N 
HETATM   34  C19   D T2601     237.068 176.763 210.431  1.00 56.59     0.286 C 
HETATM   35  C20   D T2601     237.197 178.297 210.475  1.00 57.91     0.286 C 
HETATM   36  N21   D T2601     238.372 178.674 210.001  1.00 61.09     0.143 N 
HETATM   37  C22   D T2601     238.474 178.286 208.746  1.00 58.33     0.286 C 
HETATM   38  C24   D T2601     238.471 179.972 210.064  1.00 58.82     0.285 C 
HETATM   39  C23   D T2601     238.312 176.770 208.610  1.00 60.02     0.286 C 
ENDBRANCH  32  33
ENDBRANCH  25  32
ENDBRANCH   1  22
TORSDOF 7
ENDMDL
MODEL 5
REMARK VINA RESULT:      -6.6     19.806     25.061
REMARK  7 active torsions:
REMARK  status: ('A' for Active; 'I' for Inactive)
REMARK    1  A    between atoms: C13_1  and  C25_22 
REMARK    2  A    between atoms: C17_3  and  C14_7 
REMARK    3  A    between atoms: C17_3  and  N18_34 
REMARK    4  A    between atoms: C11_5  and  N10_10 
REMARK       I    between atoms: N10_10  and  C08_18 
REMARK    5  A    between atoms: C03_13  and  C29_23 
REMARK    6  A    between atoms: C05_15  and  C08_18 
REMARK    7  A    between atoms: C30_24  and  C31_25 
ROOT
HETATM    1  N10   D T2601     228.860 186.338 217.364  1.00 54.54    -0.208 NA
HETATM    2  C08   D T2601     227.657 186.764 216.642  1.00 52.16     0.279 C 
HETATM    3  O09   D T2601     226.777 186.005 216.427  1.00 52.08    -0.265 OA
ENDROOT
BRANCH   2   4
HETATM    4  C05   D T2601     227.511 188.225 216.160  1.00 55.16     0.059 A 
HETATM    5  C04   D T2601     227.372 188.470 214.803  1.00 57.21     0.013 A 
HETATM    6  C03   D T2601     227.239 189.766 214.346  1.00 54.59     0.038 A 
HETATM    7  C02   D T2601     227.245 190.826 215.240  1.00 41.46    -0.014 A 
HETATM    8  C01   D T2601     227.100 192.251 214.726  1.00 47.17     0.032 C 
HETATM    9  C07   D T2601     227.381 190.584 216.599  1.00 46.83    -0.004 A 
HETATM   10  C06   D T2601     227.515 189.281 217.062  1.00 54.40     0.004 A 
BRANCH   6  11
HETATM   11  C29   D T2601     227.087 190.010 212.839  1.00 62.01    -0.060 C 
HETATM   12  C30   D T2601     226.973 190.187 211.664  1.00 59.38    -0.058 C 
BRANCH  12  13
HETATM   13  C31   D T2601     226.840 190.415 210.149  1.00 50.79     0.061 A 
HETATM   14  C32   D T2601     226.583 189.358 209.294  1.00 52.21     0.015 A 
HETATM   15  C33   D T2601     226.480 189.628 207.996  1.00 50.05     0.059 A 
HETATM   16  C34   D T2601     226.624 190.952 207.479  1.00 52.57     0.185 A 
HETATM   17  C37   D T2601     226.233 188.904 206.773  1.00 58.30     0.125 A 
HETATM   18  N35   D T2601     226.431 190.692 206.091  1.00 56.79    -0.129 NA
HETATM   19  N38   D T2601     226.872 192.005 208.252  1.00 60.89    -0.223 NA
HETATM   20  N36   D T2601     226.194 189.483 205.642  1.00 62.69    -0.145 NA
HETATM   21  C39   D T2601     226.983 191.739 209.608  1.00 53.90     0.109 A 
ENDBRANCH  12  13
ENDBRANCH   6  11
ENDBRANCH   2   4
BRANCH   1  22
HETATM   22  C11   D T2601     229.019 184.939 217.847  1.00 54.10     0.085 A 
HETATM   23  C12   D T2601     229.697 183.986 217.091  1.00 44.78     0.023 A 
HETATM   24  C13   D T2601     229.852 182.653 217.531  1.00 45.32     0.071 A 
HETATM   25  C14   D T2601     229.305 182.281 218.798  1.00 49.02     0.015 A 
HETATM   26  C15   D T2601     228.632 183.256 219.536  1.00 60.33    -0.001 A 
HETATM   27  C16   D T2601     228.487 184.571 219.072  1.00 55.57     0.019 A 
BRANCH  24  28
HETATM   28  C25   D T2601     230.615 181.665 216.638  1.00 59.37     0.419 C 
HETATM   29  F26   D T2601     231.465 180.898 217.377  1.00 68.99    -0.166 F 
HETATM   30  F27   D T2601     229.718 180.856 216.010  1.00 54.12    -0.166 F 
HETATM   31  F28   D T2601     231.325 182.356 215.699  1.00 77.73    -0.166 F 
ENDBRANCH  24  28
BRANCH  25  32
HETATM   32  C17   D T2601     229.430 180.826 219.379  1.00 46.42     0.277 C 
BRANCH  32  33
HETATM   33  N18   D T2601     228.586 180.034 218.714  1.00 63.20     0.146 N 
HETATM   34  C19   D T2601     227.399 180.056 219.272  1.00 56.59     0.286 C 
HETATM   35  C20   D T2601     226.458 178.923 218.822  1.00 57.91     0.286 C 
HETATM   36  N21   D T2601     226.947 178.315 217.754  1.00 61.09     0.143 N 
HETATM   37  C22   D T2601     228.114 177.787 218.057  1.00 58.33     0.286 C 
HETATM   38  C24   D T2601     226.129 177.374 217.376  1.00 58.82     0.285 C 
HETATM   39  C23   D T2601     229.099 178.847 218.558  1.00 60.02     0.286 C 
ENDBRANCH  32  33
ENDBRANCH  25  32
ENDBRANCH   1  22
TORSDOF 7
ENDMDL
MODEL 6
REMARK VINA RESULT:      -6.6     22.321     25.403
REMARK  7 active torsions:
REMARK  status: ('A' for Active; 'I' for Inactive)
REMARK    1  A    between atoms: C13_1  and  C25_22 
REMARK    2  A    between atoms: C17_3  and  C14_7 
REMARK    3  A    between atoms: C17_3  and  N18_34 
REMARK    4  A    between atoms: C11_5  and  N10_10 
REMARK       I    between atoms: N10_10  and  C08_18 
REMARK    5  A    between atoms: C03_13  and  C29_23 
REMARK    6  A    between atoms: C05_15  and  C08_18 
REMARK    7  A    between atoms: C30_24  and  C31_25 
ROOT
HETATM    1  N10   D T2601     223.853 184.034 215.321  1.00 54.54    -0.208 NA
HETATM    2  C08   D T2601     224.617 184.133 216.568  1.00 52.16     0.279 C 
HETATM    3  O09   D T2601     224.995 183.163 217.127  1.00 52.08    -0.265 OA
ENDROOT
BRANCH   2   4
HETATM    4  C05   D T2601     224.958 185.516 217.168  1.00 55.16     0.059 A 
HETATM    5  C04   D T2601     225.991 186.251 216.605  1.00 57.21     0.013 A 
HETATM    6  C03   D T2601     226.316 187.490 217.121  1.00 54.59     0.038 A 
HETATM    7  C02   D T2601     225.612 188.004 218.200  1.00 41.46    -0.014 A 
HETATM    8  C01   D T2601     225.979 189.370 218.762  1.00 47.17     0.032 C 
HETATM    9  C07   D T2601     224.577 187.272 218.763  1.00 46.83    -0.004 A 
HETATM   10  C06   D T2601     224.248 186.025 218.246  1.00 54.40     0.004 A 
BRANCH   6  11
HETATM   11  C29   D T2601     227.462 188.283 216.482  1.00 62.01    -0.060 C 
HETATM   12  C30   D T2601     228.349 188.913 215.989  1.00 59.38    -0.058 C 
BRANCH  12  13
HETATM   13  C31   D T2601     229.482 189.730 215.346  1.00 50.79     0.061 A 
HETATM   14  C32   D T2601     229.809 189.561 214.013  1.00 52.21     0.015 A 
HETATM   15  C33   D T2601     230.800 190.301 213.524  1.00 50.05     0.059 A 
HETATM   16  C34   D T2601     231.513 191.244 214.325  1.00 52.57     0.185 A 
HETATM   17  C37   D T2601     231.475 190.477 212.261  1.00 58.30     0.125 A 
HETATM   18  N35   D T2601     232.429 191.744 213.353  1.00 56.79    -0.129 NA
HETATM   19  N38   D T2601     231.243 191.450 215.611  1.00 60.89    -0.223 NA
HETATM   20  N36   D T2601     232.427 191.307 212.116  1.00 62.69    -0.145 NA
HETATM   21  C39   D T2601     230.214 190.684 216.135  1.00 53.90     0.109 A 
ENDBRANCH  12  13
ENDBRANCH   6  11
ENDBRANCH   2   4
BRANCH   1  22
HETATM   22  C11   D T2601     223.521 182.714 214.718  1.00 54.10     0.085 A 
HETATM   23  C12   D T2601     224.476 181.976 214.024  1.00 44.78     0.023 A 
HETATM   24  C13   D T2601     224.177 180.725 213.440  1.00 45.32     0.071 A 
HETATM   25  C14   D T2601     222.855 180.200 213.584  1.00 49.02     0.015 A 
HETATM   26  C15   D T2601     221.918 180.959 214.287  1.00 60.33    -0.001 A 
HETATM   27  C16   D T2601     222.240 182.202 214.850  1.00 55.57     0.019 A 
BRANCH  24  28
HETATM   28  C25   D T2601     225.288 179.975 212.693  1.00 59.37     0.419 C 
HETATM   29  F26   D T2601     225.341 178.671 213.083  1.00 68.99    -0.166 F 
HETATM   30  F27   D T2601     225.034 180.030 211.356  1.00 54.12    -0.166 F 
HETATM   31  F28   D T2601     226.488 180.575 212.942  1.00 77.73    -0.166 F 
ENDBRANCH  24  28
BRANCH  25  32
HETATM   32  C17   D T2601     222.425 178.815 212.978  1.00 46.42     0.277 C 
BRANCH  32  33
HETATM   33  N18   D T2601     221.433 179.025 212.110  1.00 63.20     0.146 N 
HETATM   34  C19   D T2601     220.640 177.981 212.059  1.00 56.59     0.286 C 
HETATM   35  C20   D T2601     219.687 177.960 210.848  1.00 57.91     0.286 C 
HETATM   36  N21   D T2601     219.673 179.141 210.252  1.00 61.09     0.143 N 
HETATM   37  C22   D T2601     220.886 179.418 209.820  1.00 58.33     0.286 C 
HETATM   38  C24   D T2601     218.849 179.111 209.244  1.00 58.82     0.285 C 
HETATM   39  C23   D T2601     221.906 179.415 210.961  1.00 60.02     0.286 C 
ENDBRANCH  32  33
ENDBRANCH  25  32
ENDBRANCH   1  22
TORSDOF 7
ENDMDL
MODEL 7
REMARK VINA RESULT:      -6.2     23.022     25.300
REMARK  7 active torsions:
REMARK  status: ('A' for Active; 'I' for Inactive)
REMARK    1  A    between atoms: C13_1  and  C25_22 
REMARK    2  A    between atoms: C17_3  and  C14_7 
REMARK    3  A    between atoms: C17_3  and  N18_34 
REMARK    4  A    between atoms: C11_5  and  N10_10 
REMARK       I    between atoms: N10_10  and  C08_18 
REMARK    5  A    between atoms: C03_13  and  C29_23 
REMARK    6  A    between atoms: C05_15  and  C08_18 
REMARK    7  A    between atoms: C30_24  and  C31_25 
ROOT
HETATM    1  N10   D T2601     224.008 183.421 215.189  1.00 54.54    -0.208 NA
HETATM    2  C08   D T2601     225.012 183.616 216.240  1.00 52.16     0.279 C 
HETATM    3  O09   D T2601     225.676 182.716 216.620  1.00 52.08    -0.265 OA
ENDROOT
BRANCH   2   4
HETATM    4  C05   D T2601     225.231 185.015 216.861  1.00 55.16     0.059 A 
HETATM    5  C04   D T2601     226.234 185.823 216.349  1.00 57.21     0.013 A 
HETATM    6  C03   D T2601     226.449 187.077 216.885  1.00 54.59     0.038 A 
HETATM    7  C02   D T2601     225.666 187.533 217.934  1.00 41.46    -0.014 A 
HETATM    8  C01   D T2601     225.913 188.916 218.519  1.00 47.17     0.032 C 
HETATM    9  C07   D T2601     224.660 186.728 218.447  1.00 46.83    -0.004 A 
HETATM   10  C06   D T2601     224.440 185.465 217.910  1.00 54.40     0.004 A 
BRANCH   6  11
HETATM   11  C29   D T2601     227.565 187.952 216.301  1.00 62.01    -0.060 C 
HETATM   12  C30   D T2601     228.424 188.643 215.841  1.00 59.38    -0.058 C 
BRANCH  12  13
HETATM   13  C31   D T2601     229.525 189.530 215.238  1.00 50.79     0.061 A 
HETATM   14  C32   D T2601     229.871 189.420 213.903  1.00 52.21     0.015 A 
HETATM   15  C33   D T2601     230.832 190.220 213.448  1.00 50.05     0.059 A 
HETATM   16  C34   D T2601     231.497 191.165 214.287  1.00 52.57     0.185 A 
HETATM   17  C37   D T2601     231.509 190.467 212.199  1.00 58.30     0.125 A 
HETATM   18  N35   D T2601     232.398 191.736 213.341  1.00 56.79    -0.129 NA
HETATM   19  N38   D T2601     231.208 191.314 215.576  1.00 60.89    -0.223 NA
HETATM   20  N36   D T2601     232.425 191.342 212.090  1.00 62.69    -0.145 NA
HETATM   21  C39   D T2601     230.209 190.487 216.064  1.00 53.90     0.109 A 
ENDBRANCH  12  13
ENDBRANCH   6  11
ENDBRANCH   2   4
BRANCH   1  22
HETATM   22  C11   D T2601     223.787 182.086 214.568  1.00 54.10     0.085 A 
HETATM   23  C12   D T2601     223.735 181.932 213.185  1.00 44.78     0.023 A 
HETATM   24  C13   D T2601     223.520 180.675 212.580  1.00 45.32     0.071 A 
HETATM   25  C14   D T2601     223.364 179.528 213.418  1.00 49.02     0.015 A 
HETATM   26  C15   D T2601     223.423 179.710 214.800  1.00 60.33    -0.001 A 
HETATM   27  C16   D T2601     223.631 180.971 215.376  1.00 55.57     0.019 A 
BRANCH  24  28
HETATM   28  C25   D T2601     223.478 180.591 211.047  1.00 59.37     0.419 C 
HETATM   29  F26   D T2601     222.364 179.929 210.627  1.00 68.99    -0.166 F 
HETATM   30  F27   D T2601     223.464 181.854 210.538  1.00 54.12    -0.166 F 
HETATM   31  F28   D T2601     224.592 179.943 210.598  1.00 77.73    -0.166 F 
ENDBRANCH  24  28
BRANCH  25  32
HETATM   32  C17   D T2601     223.128 178.084 212.841  1.00 46.42     0.277 C 
BRANCH  32  33
HETATM   33  N18   D T2601     222.069 177.554 213.457  1.00 63.20     0.146 N 
HETATM   34  C19   D T2601     222.366 176.371 213.942  1.00 56.59     0.286 C 
HETATM   35  C20   D T2601     221.147 175.521 214.347  1.00 57.91     0.286 C 
HETATM   36  N21   D T2601     220.055 176.267 214.379  1.00 61.09     0.143 N 
HETATM   37  C22   D T2601     219.835 176.759 213.178  1.00 58.33     0.286 C 
HETATM   38  C24   D T2601     219.039 175.538 214.743  1.00 58.82     0.285 C 
HETATM   39  C23   D T2601     221.025 177.585 212.680  1.00 60.02     0.286 C 
ENDBRANCH  32  33
ENDBRANCH  25  32
ENDBRANCH   1  22
TORSDOF 7
ENDMDL
MODEL 8
REMARK VINA RESULT:      -5.9     21.930     23.290
REMARK  7 active torsions:
REMARK  status: ('A' for Active; 'I' for Inactive)
REMARK    1  A    between atoms: C13_1  and  C25_22 
REMARK    2  A    between atoms: C17_3  and  C14_7 
REMARK    3  A    between atoms: C17_3  and  N18_34 
REMARK    4  A    between atoms: C11_5  and  N10_10 
REMARK       I    between atoms: N10_10  and  C08_18 
REMARK    5  A    between atoms: C03_13  and  C29_23 
REMARK    6  A    between atoms: C05_15  and  C08_18 
REMARK    7  A    between atoms: C30_24  and  C31_25 
ROOT
HETATM    1  N10   D T2601     222.295 176.197 214.365  1.00 54.54    -0.208 NA
HETATM    2  C08   D T2601     221.365 176.216 215.499  1.00 52.16     0.279 C 
HETATM    3  O09   D T2601     220.852 177.221 215.846  1.00 52.08    -0.265 OA
ENDROOT
BRANCH   2   4
HETATM    4  C05   D T2601     221.026 174.910 216.252  1.00 55.16     0.059 A 
HETATM    5  C04   D T2601     220.950 173.726 215.534  1.00 57.21     0.013 A 
HETATM    6  C03   D T2601     220.651 172.545 216.183  1.00 54.59     0.038 A 
HETATM    7  C02   D T2601     220.425 172.536 217.551  1.00 41.46    -0.014 A 
HETATM    8  C01   D T2601     220.092 171.229 218.256  1.00 47.17     0.032 C 
HETATM    9  C07   D T2601     220.502 173.718 218.272  1.00 46.83    -0.004 A 
HETATM   10  C06   D T2601     220.804 174.909 217.622  1.00 54.40     0.004 A 
BRANCH   6  11
HETATM   11  C29   D T2601     220.572 171.248 215.367  1.00 62.01    -0.060 C 
HETATM   12  C30   D T2601     220.497 170.238 214.733  1.00 59.38    -0.058 C 
BRANCH  12  13
HETATM   13  C31   D T2601     220.396 168.932 213.929  1.00 50.79     0.061 A 
HETATM   14  C32   D T2601     220.787 167.727 214.484  1.00 52.21     0.015 A 
HETATM   15  C33   D T2601     220.672 166.636 213.732  1.00 50.05     0.059 A 
HETATM   16  C34   D T2601     220.166 166.682 212.397  1.00 52.57     0.185 A 
HETATM   17  C37   D T2601     220.933 165.223 213.856  1.00 58.30     0.125 A 
HETATM   18  N35   D T2601     220.250 165.300 212.058  1.00 56.79    -0.129 NA
HETATM   19  N38   D T2601     219.776 167.811 211.811  1.00 60.89    -0.223 NA
HETATM   20  N36   D T2601     220.702 164.408 212.908  1.00 62.69    -0.145 NA
HETATM   21  C39   D T2601     219.891 168.955 212.584  1.00 53.90     0.109 A 
ENDBRANCH  12  13
ENDBRANCH   6  11
ENDBRANCH   2   4
BRANCH   1  22
HETATM   22  C11   D T2601     222.630 177.441 213.617  1.00 54.10     0.085 A 
HETATM   23  C12   D T2601     223.706 178.241 213.990  1.00 44.78     0.023 A 
HETATM   24  C13   D T2601     224.034 179.426 213.296  1.00 45.32     0.071 A 
HETATM   25  C14   D T2601     223.240 179.802 212.169  1.00 49.02     0.015 A 
HETATM   26  C15   D T2601     222.168 178.981 211.815  1.00 60.33    -0.001 A 
HETATM   27  C16   D T2601     221.861 177.813 212.526  1.00 55.57     0.019 A 
BRANCH  24  28
HETATM   28  C25   D T2601     225.238 180.251 213.771  1.00 59.37     0.419 C 
HETATM   29  F26   D T2601     224.847 181.488 214.187  1.00 68.99    -0.166 F 
HETATM   30  F27   D T2601     225.835 179.601 214.809  1.00 54.12    -0.166 F 
HETATM   31  F28   D T2601     226.135 180.376 212.750  1.00 77.73    -0.166 F 
ENDBRANCH  24  28
BRANCH  25  32
HETATM   32  C17   D T2601     223.527 181.098 211.326  1.00 46.42     0.277 C 
BRANCH  32  33
HETATM   33  N18   D T2601     222.425 181.851 211.325  1.00 63.20     0.146 N 
HETATM   34  C19   D T2601     222.354 182.557 210.221  1.00 56.59     0.286 C 
HETATM   35  C20   D T2601     221.337 183.713 210.265  1.00 57.91     0.286 C 
HETATM   36  N21   D T2601     220.543 183.589 211.316  1.00 61.09     0.143 N 
HETATM   37  C22   D T2601     221.271 183.636 212.412  1.00 58.33     0.286 C 
HETATM   38  C24   D T2601     219.678 184.563 211.326  1.00 58.82     0.285 C 
HETATM   39  C23   D T2601     222.341 182.541 212.426  1.00 60.02     0.286 C 
ENDBRANCH  32  33
ENDBRANCH  25  32
ENDBRANCH   1  22
TORSDOF 7
ENDMDL
MODEL 9
REMARK VINA RESULT:      -5.7      3.316     12.292
REMARK  7 active torsions:
REMARK  status: ('A' for Active; 'I' for Inactive)
REMARK    1  A    between atoms: C13_1  and  C25_22 
REMARK    2  A    between atoms: C17_3  and  C14_7 
REMARK    3  A    between atoms: C17_3  and  N18_34 
REMARK    4  A    between atoms: C11_5  and  N10_10 
REMARK       I    between atoms: N10_10  and  C08_18 
REMARK    5  A    between atoms: C03_13  and  C29_23 
REMARK    6  A    between atoms: C05_15  and  C08_18 
REMARK    7  A    between atoms: C30_24  and  C31_25 
ROOT
HETATM    1  N10   D T2601     244.201 170.597 213.629  1.00 54.54    -0.208 NA
HETATM    2  C08   D T2601     242.899 170.693 212.961  1.00 52.16     0.279 C 
HETATM    3  O09   D T2601     242.606 169.950 212.092  1.00 52.08    -0.265 OA
ENDROOT
BRANCH   2   4
HETATM    4  C05   D T2601     241.875 171.766 213.399  1.00 55.16     0.059 A 
HETATM    5  C04   D T2601     241.253 172.531 212.424  1.00 57.21     0.013 A 
HETATM    6  C03   D T2601     240.333 173.494 212.787  1.00 54.59     0.038 A 
HETATM    7  C02   D T2601     240.029 173.701 214.124  1.00 41.46    -0.014 A 
HETATM    8  C01   D T2601     239.016 174.768 214.515  1.00 47.17     0.032 C 
HETATM    9  C07   D T2601     240.648 172.936 215.102  1.00 46.83    -0.004 A 
HETATM   10  C06   D T2601     241.574 171.965 214.739  1.00 54.40     0.004 A 
BRANCH   6  11
HETATM   11  C29   D T2601     239.659 174.328 211.691  1.00 62.01    -0.060 C 
HETATM   12  C30   D T2601     239.124 174.966 210.834  1.00 59.38    -0.058 C 
BRANCH  12  13
HETATM   13  C31   D T2601     238.439 175.779 209.723  1.00 50.79     0.061 A 
HETATM   14  C32   D T2601     237.070 175.977 209.731  1.00 52.21     0.015 A 
HETATM   15  C33   D T2601     236.546 176.691 208.739  1.00 50.05     0.059 A 
HETATM   16  C34   D T2601     237.346 177.243 207.692  1.00 52.57     0.185 A 
HETATM   17  C37   D T2601     235.241 177.147 208.329  1.00 58.30     0.125 A 
HETATM   18  N35   D T2601     236.331 177.885 206.924  1.00 56.79    -0.129 NA
HETATM   19  N38   D T2601     238.666 177.085 207.632  1.00 60.89    -0.223 NA
HETATM   20  N36   D T2601     235.069 177.846 207.281  1.00 62.69    -0.145 NA
HETATM   21  C39   D T2601     239.226 176.342 208.660  1.00 53.90     0.109 A 
ENDBRANCH  12  13
ENDBRANCH   6  11
ENDBRANCH   2   4
BRANCH   1  22
HETATM   22  C11   D T2601     245.200 169.566 213.233  1.00 54.10     0.085 A 
HETATM   23  C12   D T2601     245.114 168.258 213.703  1.00 44.78     0.023 A 
HETATM   24  C13   D T2601     246.056 167.269 213.343  1.00 45.32     0.071 A 
HETATM   25  C14   D T2601     247.119 167.626 212.457  1.00 49.02     0.015 A 
HETATM   26  C15   D T2601     247.180 168.943 211.998  1.00 60.33    -0.001 A 
HETATM   27  C16   D T2601     246.235 169.906 212.377  1.00 55.57     0.019 A 
BRANCH  24  28
HETATM   28  C25   D T2601     245.888 165.851 213.905  1.00 59.37     0.419 C 
HETATM   29  F26   D T2601     245.559 164.973 212.917  1.00 68.99    -0.166 F 
HETATM   30  F27   D T2601     247.062 165.461 214.474  1.00 54.12    -0.166 F 
HETATM   31  F28   D T2601     244.911 165.852 214.858  1.00 77.73    -0.166 F 
ENDBRANCH  24  28
BRANCH  25  32
HETATM   32  C17   D T2601     248.212 166.597 211.991  1.00 46.42     0.277 C 
BRANCH  32  33
HETATM   33  N18   D T2601     248.196 166.541 210.657  1.00 63.20     0.146 N 
HETATM   34  C19   D T2601     247.337 165.638 210.246  1.00 56.59     0.286 C 
HETATM   35  C20   D T2601     247.492 165.233 208.768  1.00 57.91     0.286 C 
HETATM   36  N21   D T2601     248.287 166.083 208.138  1.00 61.09     0.143 N 
HETATM   37  C22   D T2601     249.477 166.057 208.701  1.00 58.33     0.286 C 
HETATM   38  C24   D T2601     248.390 165.737 206.887  1.00 58.82     0.285 C 
HETATM   39  C23   D T2601     249.404 166.406 210.190  1.00 60.02     0.286 C 
ENDBRANCH  32  33
ENDBRANCH  25  32
ENDBRANCH   1  22
TORSDOF 7
ENDMDL
