MODEL 1
REMARK VINA RESULT:      -8.9      0.000      0.000
REMARK  7 active torsions:
REMARK  status: ('A' for Active; 'I' for Inactive)
REMARK    1  A    between atoms: C13_1  and  C25_22 
REMARK    2  A    between atoms: C17_3  and  C14_7 
REMARK    3  A    between atoms: C17_3  and  N18_34 
REMARK    4  A    between atoms: C11_5  and  N10_10 
REMARK       I    between atoms: N10_10  and  C08_18 
REMARK    5  A    between atoms: C03_13  and  C29_23 
REMARK    6  A    between atoms: C05_15  and  C08_18 
REMARK    7  A    between atoms: C30_24  and  C31_25 
ROOT
HETATM    1  N10   D T2601     241.505 175.484 211.439  1.00 54.54    -0.208 NA
HETATM    2  C08   D T2601     241.595 174.096 210.977  1.00 52.16     0.279 C 
HETATM    3  O09   D T2601     240.734 173.615 210.328  1.00 52.08    -0.265 OA
ENDROOT
BRANCH   2   4
HETATM    4  C05   D T2601     242.835 173.238 211.319  1.00 55.16     0.059 A 
HETATM    5  C04   D T2601     242.905 171.942 210.831  1.00 57.21     0.013 A 
HETATM    6  C03   D T2601     244.001 171.155 211.121  1.00 54.59     0.038 A 
HETATM    7  C02   D T2601     245.035 171.655 211.899  1.00 41.46    -0.014 A 
HETATM    8  C01   D T2601     246.238 170.778 212.215  1.00 47.17     0.032 C 
HETATM    9  C07   D T2601     244.969 172.952 212.386  1.00 46.83    -0.004 A 
HETATM   10  C06   D T2601     243.867 173.747 212.095  1.00 54.40     0.004 A 
BRANCH   6  11
HETATM   11  C29   D T2601     244.055 169.724 210.570  1.00 62.01    -0.060 C 
HETATM   12  C30   D T2601     244.106 168.607 210.152  1.00 59.38    -0.058 C 
BRANCH  12  13
HETATM   13  C31   D T2601     244.185 167.170 209.611  1.00 50.79     0.061 A 
HETATM   14  C32   D T2601     244.807 166.901 208.405  1.00 52.21     0.015 A 
HETATM   15  C33   D T2601     244.839 165.635 207.998  1.00 50.05     0.059 A 
HETATM   16  C34   D T2601     244.260 164.575 208.760  1.00 52.57     0.185 A 
HETATM   17  C37   D T2601     245.345 164.890 206.871  1.00 58.30     0.125 A 
HETATM   18  N35   D T2601     244.560 163.472 207.909  1.00 56.79    -0.129 NA
HETATM   19  N38   D T2601     243.649 164.774 209.925  1.00 60.89    -0.223 NA
HETATM   20  N36   D T2601     245.207 163.630 206.778  1.00 62.69    -0.145 NA
HETATM   21  C39   D T2601     243.608 166.088 210.361  1.00 53.90     0.109 A 
ENDBRANCH  12  13
ENDBRANCH   6  11
ENDBRANCH   2   4
BRANCH   1  22
HETATM   22  C11   D T2601     240.327 176.334 211.114  1.00 54.10     0.085 A 
HETATM   23  C12   D T2601     239.177 176.308 211.900  1.00 44.78     0.023 A 
HETATM   24  C13   D T2601     238.048 177.102 211.602  1.00 45.32     0.071 A 
HETATM   25  C14   D T2601     238.099 177.967 210.466  1.00 49.02     0.015 A 
HETATM   26  C15   D T2601     239.264 177.976 209.697  1.00 60.33    -0.001 A 
HETATM   27  C16   D T2601     240.368 177.172 210.011  1.00 55.57     0.019 A 
BRANCH  24  28
HETATM   28  C25   D T2601     236.822 177.015 212.522  1.00 59.37     0.419 C 
HETATM   29  F26   D T2601     235.737 176.550 211.841  1.00 68.99    -0.166 F 
HETATM   30  F27   D T2601     237.102 176.165 213.548  1.00 54.12    -0.166 F 
HETATM   31  F28   D T2601     236.547 178.251 213.030  1.00 77.73    -0.166 F 
ENDBRANCH  24  28
BRANCH  25  32
HETATM   32  C17   D T2601     236.898 178.895 210.056  1.00 46.42     0.277 C 
BRANCH  32  33
HETATM   33  N18   D T2601     236.839 178.941 208.723  1.00 63.20     0.146 N 
HETATM   34  C19   D T2601     236.954 180.178 208.301  1.00 56.59     0.286 C 
HETATM   35  C20   D T2601     236.542 180.395 206.833  1.00 57.91     0.286 C 
HETATM   36  N21   D T2601     236.415 179.233 206.213  1.00 61.09     0.143 N 
HETATM   37  C22   D T2601     235.474 178.530 206.808  1.00 58.33     0.286 C 
HETATM   38  C24   D T2601     236.086 179.436 204.969  1.00 58.82     0.285 C 
HETATM   39  C23   D T2601     235.788 178.307 208.290  1.00 60.02     0.286 C 
ENDBRANCH  32  33
ENDBRANCH  25  32
ENDBRANCH   1  22
TORSDOF 7
ENDMDL
MODEL 2
REMARK VINA RESULT:      -8.8      3.613     12.547
REMARK  7 active torsions:
REMARK  status: ('A' for Active; 'I' for Inactive)
REMARK    1  A    between atoms: C13_1  and  C25_22 
REMARK    2  A    between atoms: C17_3  and  C14_7 
REMARK    3  A    between atoms: C17_3  and  N18_34 
REMARK    4  A    between atoms: C11_5  and  N10_10 
REMARK       I    between atoms: N10_10  and  C08_18 
REMARK    5  A    between atoms: C03_13  and  C29_23 
REMARK    6  A    between atoms: C05_15  and  C08_18 
REMARK    7  A    between atoms: C30_24  and  C31_25 
ROOT
HETATM    1  N10   D T2601     242.089 172.835 211.708  1.00 54.54    -0.208 NA
HETATM    2  C08   D T2601     241.146 172.720 212.825  1.00 52.16     0.279 C 
HETATM    3  O09   D T2601     241.041 171.711 213.429  1.00 52.08    -0.265 OA
ENDROOT
BRANCH   2   4
HETATM    4  C05   D T2601     240.281 173.931 213.244  1.00 55.16     0.059 A 
HETATM    5  C04   D T2601     239.878 174.832 212.270  1.00 57.21     0.013 A 
HETATM    6  C03   D T2601     239.104 175.921 212.617  1.00 54.59     0.038 A 
HETATM    7  C02   D T2601     238.727 176.118 213.937  1.00 41.46    -0.014 A 
HETATM    8  C01   D T2601     237.875 177.324 214.309  1.00 47.17     0.032 C 
HETATM    9  C07   D T2601     239.126 175.217 214.913  1.00 46.83    -0.004 A 
HETATM   10  C06   D T2601     239.905 174.119 214.567  1.00 54.40     0.004 A 
BRANCH   6  11
HETATM   11  C29   D T2601     238.672 176.904 211.522  1.00 62.01    -0.060 C 
HETATM   12  C30   D T2601     238.322 177.670 210.675  1.00 59.38    -0.058 C 
BRANCH  12  13
HETATM   13  C31   D T2601     237.863 178.646 209.580  1.00 50.79     0.061 A 
HETATM   14  C32   D T2601     237.539 178.191 208.315  1.00 52.21     0.015 A 
HETATM   15  C33   D T2601     237.148 179.091 207.417  1.00 50.05     0.059 A 
HETATM   16  C34   D T2601     237.059 180.483 207.725  1.00 52.57     0.185 A 
HETATM   17  C37   D T2601     236.728 179.108 206.038  1.00 58.30     0.125 A 
HETATM   18  N35   D T2601     236.612 180.981 206.466  1.00 56.79    -0.129 NA
HETATM   19  N38   D T2601     237.357 180.979 208.922  1.00 60.89    -0.223 NA
HETATM   20  N36   D T2601     236.405 180.185 205.444  1.00 62.69    -0.145 NA
HETATM   21  C39   D T2601     237.766 180.052 209.868  1.00 53.90     0.109 A 
ENDBRANCH  12  13
ENDBRANCH   6  11
ENDBRANCH   2   4
BRANCH   1  22
HETATM   22  C11   D T2601     242.941 171.686 211.292  1.00 54.10     0.085 A 
HETATM   23  C12   D T2601     242.523 170.797 210.305  1.00 44.78     0.023 A 
HETATM   24  C13   D T2601     243.315 169.699 209.903  1.00 45.32     0.071 A 
HETATM   25  C14   D T2601     244.589 169.510 210.522  1.00 49.02     0.015 A 
HETATM   26  C15   D T2601     244.984 170.417 211.506  1.00 60.33    -0.001 A 
HETATM   27  C16   D T2601     244.175 171.495 211.891  1.00 55.57     0.019 A 
BRANCH  24  28
HETATM   28  C25   D T2601     242.781 168.766 208.807  1.00 59.37     0.419 C 
HETATM   29  F26   D T2601     243.751 168.489 207.891  1.00 68.99    -0.166 F 
HETATM   30  F27   D T2601     242.366 167.604 209.382  1.00 54.12    -0.166 F 
HETATM   31  F28   D T2601     241.721 169.357 208.184  1.00 77.73    -0.166 F 
ENDBRANCH  24  28
BRANCH  25  32
HETATM   32  C17   D T2601     245.547 168.323 210.140  1.00 46.42     0.277 C 
BRANCH  32  33
HETATM   33  N18   D T2601     245.283 167.293 210.946  1.00 63.20     0.146 N 
HETATM   34  C19   D T2601     246.191 167.204 211.889  1.00 56.59     0.286 C 
HETATM   35  C20   D T2601     246.198 165.863 212.647  1.00 57.91     0.286 C 
HETATM   36  N21   D T2601     245.101 165.174 212.375  1.00 61.09     0.143 N 
HETATM   37  C22   D T2601     245.064 164.919 211.084  1.00 58.33     0.286 C 
HETATM   38  C24   D T2601     245.115 164.054 213.039  1.00 58.82     0.285 C 
HETATM   39  C23   D T2601     245.100 166.206 210.254  1.00 60.02     0.286 C 
ENDBRANCH  32  33
ENDBRANCH  25  32
ENDBRANCH   1  22
TORSDOF 7
ENDMDL
MODEL 3
REMARK VINA RESULT:      -8.7      2.776      4.200
REMARK  7 active torsions:
REMARK  status: ('A' for Active; 'I' for Inactive)
REMARK    1  A    between atoms: C13_1  and  C25_22 
REMARK    2  A    between atoms: C17_3  and  C14_7 
REMARK    3  A    between atoms: C17_3  and  N18_34 
REMARK    4  A    between atoms: C11_5  and  N10_10 
REMARK       I    between atoms: N10_10  and  C08_18 
REMARK    5  A    between atoms: C03_13  and  C29_23 
REMARK    6  A    between atoms: C05_15  and  C08_18 
REMARK    7  A    between atoms: C30_24  and  C31_25 
ROOT
HETATM    1  N10   D T2601     242.099 172.494 209.897  1.00 54.54    -0.208 NA
HETATM    2  C08   D T2601     241.455 171.442 209.103  1.00 52.16     0.279 C 
HETATM    3  O09   D T2601     240.304 171.495 208.844  1.00 52.08    -0.265 OA
ENDROOT
BRANCH   2   4
HETATM    4  C05   D T2601     242.282 170.248 208.575  1.00 55.16     0.059 A 
HETATM    5  C04   D T2601     242.642 169.242 209.459  1.00 57.21     0.013 A 
HETATM    6  C03   D T2601     243.379 168.163 209.013  1.00 54.59     0.038 A 
HETATM    7  C02   D T2601     243.761 168.080 207.682  1.00 41.46    -0.014 A 
HETATM    8  C01   D T2601     244.575 166.887 207.201  1.00 47.17     0.032 C 
HETATM    9  C07   D T2601     243.400 169.083 206.794  1.00 46.83    -0.004 A 
HETATM   10  C06   D T2601     242.657 170.170 207.241  1.00 54.40     0.004 A 
BRANCH   6  11
HETATM   11  C29   D T2601     243.765 167.064 210.010  1.00 62.01    -0.060 C 
HETATM   12  C30   D T2601     244.080 166.208 210.782  1.00 59.38    -0.058 C 
BRANCH  12  13
HETATM   13  C31   D T2601     244.486 165.098 211.764  1.00 50.79     0.061 A 
HETATM   14  C32   D T2601     245.372 164.106 211.385  1.00 52.21     0.015 A 
HETATM   15  C33   D T2601     245.680 163.177 212.286  1.00 50.05     0.059 A 
HETATM   16  C34   D T2601     245.128 163.183 213.604  1.00 52.57     0.185 A 
HETATM   17  C37   D T2601     246.511 162.002 212.364  1.00 58.30     0.125 A 
HETATM   18  N35   D T2601     245.760 162.021 214.136  1.00 56.79    -0.129 NA
HETATM   19  N38   D T2601     244.272 164.110 214.024  1.00 60.89    -0.223 NA
HETATM   20  N36   D T2601     246.589 161.299 213.421  1.00 62.69    -0.145 NA
HETATM   21  C39   D T2601     243.942 165.084 213.095  1.00 53.90     0.109 A 
ENDBRANCH  12  13
ENDBRANCH   6  11
ENDBRANCH   2   4
BRANCH   1  22
HETATM   22  C11   D T2601     241.327 173.660 210.408  1.00 54.10     0.085 A 
HETATM   23  C12   D T2601     240.832 173.685 211.710  1.00 44.78     0.023 A 
HETATM   24  C13   D T2601     240.092 174.779 212.209  1.00 45.32     0.071 A 
HETATM   25  C14   D T2601     239.861 175.898 211.351  1.00 49.02     0.015 A 
HETATM   26  C15   D T2601     240.370 175.849 210.053  1.00 60.33    -0.001 A 
HETATM   27  C16   D T2601     241.095 174.747 209.580  1.00 55.57     0.019 A 
BRANCH  24  28
HETATM   28  C25   D T2601     239.584 174.727 213.657  1.00 59.37     0.419 C 
HETATM   29  F26   D T2601     240.279 175.592 214.447  1.00 68.99    -0.166 F 
HETATM   30  F27   D T2601     238.266 175.071 213.672  1.00 54.12    -0.166 F 
HETATM   31  F28   D T2601     239.718 173.458 214.140  1.00 77.73    -0.166 F 
ENDBRANCH  24  28
BRANCH  25  32
HETATM   32  C17   D T2601     239.056 177.167 211.815  1.00 46.42     0.277 C 
BRANCH  32  33
HETATM   33  N18   D T2601     238.323 177.598 210.787  1.00 63.20     0.146 N 
HETATM   34  C19   D T2601     238.478 178.891 210.623  1.00 56.59     0.286 C 
HETATM   35  C20   D T2601     237.422 179.553 209.718  1.00 57.91     0.286 C 
HETATM   36  N21   D T2601     236.731 178.632 209.066  1.00 61.09     0.143 N 
HETATM   37  C22   D T2601     236.107 177.867 209.938  1.00 58.33     0.286 C 
HETATM   38  C24   D T2601     235.857 179.210 208.292  1.00 58.82     0.285 C 
HETATM   39  C23   D T2601     237.088 177.203 210.908  1.00 60.02     0.286 C 
ENDBRANCH  32  33
ENDBRANCH  25  32
ENDBRANCH   1  22
TORSDOF 7
ENDMDL
MODEL 4
REMARK VINA RESULT:      -8.5      3.800     12.552
REMARK  7 active torsions:
REMARK  status: ('A' for Active; 'I' for Inactive)
REMARK    1  A    between atoms: C13_1  and  C25_22 
REMARK    2  A    between atoms: C17_3  and  C14_7 
REMARK    3  A    between atoms: C17_3  and  N18_34 
REMARK    4  A    between atoms: C11_5  and  N10_10 
REMARK       I    between atoms: N10_10  and  C08_18 
REMARK    5  A    between atoms: C03_13  and  C29_23 
REMARK    6  A    between atoms: C05_15  and  C08_18 
REMARK    7  A    between atoms: C30_24  and  C31_25 
ROOT
HETATM    1  N10   D T2601     241.869 173.197 212.248  1.00 54.54    -0.208 NA
HETATM    2  C08   D T2601     240.960 173.044 213.388  1.00 52.16     0.279 C 
HETATM    3  O09   D T2601     241.033 172.105 214.101  1.00 52.08    -0.265 OA
ENDROOT
BRANCH   2   4
HETATM    4  C05   D T2601     239.894 174.122 213.687  1.00 55.16     0.059 A 
HETATM    5  C04   D T2601     239.495 174.969 212.664  1.00 57.21     0.013 A 
HETATM    6  C03   D T2601     238.544 175.940 212.903  1.00 54.59     0.038 A 
HETATM    7  C02   D T2601     237.985 176.074 214.165  1.00 41.46    -0.014 A 
HETATM    8  C01   D T2601     236.938 177.150 214.420  1.00 47.17     0.032 C 
HETATM    9  C07   D T2601     238.379 175.227 215.191  1.00 46.83    -0.004 A 
HETATM   10  C06   D T2601     239.336 174.248 214.952  1.00 54.40     0.004 A 
BRANCH   6  11
HETATM   11  C29   D T2601     238.120 176.864 211.755  1.00 62.01    -0.060 C 
HETATM   12  C30   D T2601     237.799 177.576 210.851  1.00 59.38    -0.058 C 
BRANCH  12  13
HETATM   13  C31   D T2601     237.397 178.497 209.688  1.00 50.79     0.061 A 
HETATM   14  C32   D T2601     236.843 177.977 208.532  1.00 52.21     0.015 A 
HETATM   15  C33   D T2601     236.518 178.833 207.566  1.00 50.05     0.059 A 
HETATM   16  C34   D T2601     236.725 180.240 207.694  1.00 52.57     0.185 A 
HETATM   17  C37   D T2601     235.943 178.779 206.245  1.00 58.30     0.125 A 
HETATM   18  N35   D T2601     236.228 180.674 206.431  1.00 56.79    -0.129 NA
HETATM   19  N38   D T2601     237.254 180.796 208.781  1.00 60.89    -0.223 NA
HETATM   20  N36   D T2601     235.754 179.826 205.549  1.00 62.69    -0.145 NA
HETATM   21  C39   D T2601     237.598 179.916 209.795  1.00 53.90     0.109 A 
ENDBRANCH  12  13
ENDBRANCH   6  11
ENDBRANCH   2   4
BRANCH   1  22
HETATM   22  C11   D T2601     242.910 172.177 211.945  1.00 54.10     0.085 A 
HETATM   23  C12   D T2601     244.256 172.416 212.212  1.00 44.78     0.023 A 
HETATM   24  C13   D T2601     245.258 171.463 211.926  1.00 45.32     0.071 A 
HETATM   25  C14   D T2601     244.869 170.210 211.358  1.00 49.02     0.015 A 
HETATM   26  C15   D T2601     243.514 169.995 211.103  1.00 60.33    -0.001 A 
HETATM   27  C16   D T2601     242.541 170.962 211.390  1.00 55.57     0.019 A 
BRANCH  24  28
HETATM   28  C25   D T2601     246.718 171.806 212.253  1.00 59.37     0.419 C 
HETATM   29  F26   D T2601     246.831 173.096 212.676  1.00 68.99    -0.166 F 
HETATM   30  F27   D T2601     247.154 170.975 213.240  1.00 54.12    -0.166 F 
HETATM   31  F28   D T2601     247.488 171.620 211.143  1.00 77.73    -0.166 F 
ENDBRANCH  24  28
BRANCH  25  32
HETATM   32  C17   D T2601     245.907 169.082 211.010  1.00 46.42     0.277 C 
BRANCH  32  33
HETATM   33  N18   D T2601     245.450 167.926 211.497  1.00 63.20     0.146 N 
HETATM   34  C19   D T2601     245.960 167.694 212.684  1.00 56.59     0.286 C 
HETATM   35  C20   D T2601     245.797 166.245 213.179  1.00 57.91     0.286 C 
HETATM   36  N21   D T2601     244.929 165.594 212.422  1.00 61.09     0.143 N 
HETATM   37  C22   D T2601     245.380 165.560 211.185  1.00 58.33     0.286 C 
HETATM   38  C24   D T2601     244.788 164.378 212.867  1.00 58.82     0.285 C 
HETATM   39  C23   D T2601     245.613 166.968 210.631  1.00 60.02     0.286 C 
ENDBRANCH  32  33
ENDBRANCH  25  32
ENDBRANCH   1  22
TORSDOF 7
ENDMDL
MODEL 5
REMARK VINA RESULT:      -8.5      1.525      2.186
REMARK  7 active torsions:
REMARK  status: ('A' for Active; 'I' for Inactive)
REMARK    1  A    between atoms: C13_1  and  C25_22 
REMARK    2  A    between atoms: C17_3  and  C14_7 
REMARK    3  A    between atoms: C17_3  and  N18_34 
REMARK    4  A    between atoms: C11_5  and  N10_10 
REMARK       I    between atoms: N10_10  and  C08_18 
REMARK    5  A    between atoms: C03_13  and  C29_23 
REMARK    6  A    between atoms: C05_15  and  C08_18 
REMARK    7  A    between atoms: C30_24  and  C31_25 
ROOT
HETATM    1  N10   D T2601     241.595 173.505 212.677  1.00 54.54    -0.208 NA
HETATM    2  C08   D T2601     242.831 173.773 211.935  1.00 52.16     0.279 C 
HETATM    3  O09   D T2601     242.931 174.728 211.247  1.00 52.08    -0.265 OA
ENDROOT
BRANCH   2   4
HETATM    4  C05   D T2601     244.037 172.814 212.054  1.00 55.16     0.059 A 
HETATM    5  C04   D T2601     243.954 171.561 211.466  1.00 57.21     0.013 A 
HETATM    6  C03   D T2601     245.017 170.685 211.556  1.00 54.59     0.038 A 
HETATM    7  C02   D T2601     246.170 171.054 212.234  1.00 41.46    -0.014 A 
HETATM    8  C01   D T2601     247.336 170.080 212.330  1.00 47.17     0.032 C 
HETATM    9  C07   D T2601     246.258 172.307 212.820  1.00 46.83    -0.004 A 
HETATM   10  C06   D T2601     245.189 173.191 212.731  1.00 54.40     0.004 A 
BRANCH   6  11
HETATM   11  C29   D T2601     244.900 169.305 210.898  1.00 62.01    -0.060 C 
HETATM   12  C30   D T2601     244.807 168.236 210.373  1.00 59.38    -0.058 C 
BRANCH  12  13
HETATM   13  C31   D T2601     244.675 166.864 209.694  1.00 50.79     0.061 A 
HETATM   14  C32   D T2601     245.304 166.605 208.489  1.00 52.21     0.015 A 
HETATM   15  C33   D T2601     245.147 165.395 207.960  1.00 50.05     0.059 A 
HETATM   16  C34   D T2601     244.361 164.384 208.592  1.00 52.57     0.185 A 
HETATM   17  C37   D T2601     245.579 164.683 206.783  1.00 58.30     0.125 A 
HETATM   18  N35   D T2601     244.517 163.329 207.646  1.00 56.79    -0.129 NA
HETATM   19  N38   D T2601     243.733 164.575 209.749  1.00 60.89    -0.223 NA
HETATM   20  N36   D T2601     245.239 163.478 206.560  1.00 62.69    -0.145 NA
HETATM   21  C39   D T2601     243.888 165.831 210.312  1.00 53.90     0.109 A 
ENDBRANCH  12  13
ENDBRANCH   6  11
ENDBRANCH   2   4
BRANCH   1  22
HETATM   22  C11   D T2601     240.423 174.419 212.587  1.00 54.10     0.085 A 
HETATM   23  C12   D T2601     239.715 174.801 213.723  1.00 44.78     0.023 A 
HETATM   24  C13   D T2601     238.598 175.662 213.656  1.00 45.32     0.071 A 
HETATM   25  C14   D T2601     238.196 176.165 212.380  1.00 49.02     0.015 A 
HETATM   26  C15   D T2601     238.925 175.768 211.257  1.00 60.33    -0.001 A 
HETATM   27  C16   D T2601     240.026 174.906 211.352  1.00 55.57     0.019 A 
BRANCH  24  28
HETATM   28  C25   D T2601     237.874 176.034 214.957  1.00 59.37     0.419 C 
HETATM   29  F26   D T2601     238.429 175.393 216.023  1.00 68.99    -0.166 F 
HETATM   30  F27   D T2601     237.973 177.379 215.145  1.00 54.12    -0.166 F 
HETATM   31  F28   D T2601     236.556 175.695 214.857  1.00 77.73    -0.166 F 
ENDBRANCH  24  28
BRANCH  25  32
HETATM   32  C17   D T2601     236.972 177.134 212.200  1.00 46.42     0.277 C 
BRANCH  32  33
HETATM   33  N18   D T2601     237.125 177.796 211.051  1.00 63.20     0.146 N 
HETATM   34  C19   D T2601     237.644 178.981 211.270  1.00 56.59     0.286 C 
HETATM   35  C20   D T2601     237.531 179.959 210.085  1.00 57.91     0.286 C 
HETATM   36  N21   D T2601     237.175 179.313 208.987  1.00 61.09     0.143 N 
HETATM   37  C22   D T2601     235.997 178.757 209.179  1.00 58.33     0.286 C 
HETATM   38  C24   D T2601     237.103 180.151 207.993  1.00 58.82     0.285 C 
HETATM   39  C23   D T2601     236.013 177.799 210.373  1.00 60.02     0.286 C 
ENDBRANCH  32  33
ENDBRANCH  25  32
ENDBRANCH   1  22
TORSDOF 7
ENDMDL
MODEL 6
REMARK VINA RESULT:      -8.5      3.233      4.599
REMARK  7 active torsions:
REMARK  status: ('A' for Active; 'I' for Inactive)
REMARK    1  A    between atoms: C13_1  and  C25_22 
REMARK    2  A    between atoms: C17_3  and  C14_7 
REMARK    3  A    between atoms: C17_3  and  N18_34 
REMARK    4  A    between atoms: C11_5  and  N10_10 
REMARK       I    between atoms: N10_10  and  C08_18 
REMARK    5  A    between atoms: C03_13  and  C29_23 
REMARK    6  A    between atoms: C05_15  and  C08_18 
REMARK    7  A    between atoms: C30_24  and  C31_25 
ROOT
HETATM    1  N10   D T2601     241.154 172.164 210.432  1.00 54.54    -0.208 NA
HETATM    2  C08   D T2601     242.579 171.836 210.548  1.00 52.16     0.279 C 
HETATM    3  O09   D T2601     243.354 172.632 210.946  1.00 52.08    -0.265 OA
ENDROOT
BRANCH   2   4
HETATM    4  C05   D T2601     243.090 170.429 210.164  1.00 55.16     0.059 A 
HETATM    5  C04   D T2601     243.298 169.497 211.169  1.00 57.21     0.013 A 
HETATM    6  C03   D T2601     243.753 168.232 210.853  1.00 54.59     0.038 A 
HETATM    7  C02   D T2601     244.003 167.889 209.532  1.00 41.46    -0.014 A 
HETATM    8  C01   D T2601     244.506 166.493 209.195  1.00 47.17     0.032 C 
HETATM    9  C07   D T2601     243.793 168.818 208.524  1.00 46.83    -0.004 A 
HETATM   10  C06   D T2601     243.334 170.092 208.839  1.00 54.40     0.004 A 
BRANCH   6  11
HETATM   11  C29   D T2601     243.976 167.219 211.983  1.00 62.01    -0.060 C 
HETATM   12  C30   D T2601     244.135 166.431 212.866  1.00 59.38    -0.058 C 
BRANCH  12  13
HETATM   13  C31   D T2601     244.338 165.427 214.012  1.00 50.79     0.061 A 
HETATM   14  C32   D T2601     244.541 164.084 213.750  1.00 52.21     0.015 A 
HETATM   15  C33   D T2601     244.710 163.272 214.790  1.00 50.05     0.059 A 
HETATM   16  C34   D T2601     244.688 163.746 216.137  1.00 52.57     0.185 A 
HETATM   17  C37   D T2601     244.941 161.867 215.018  1.00 58.30     0.125 A 
HETATM   18  N35   D T2601     244.908 162.519 216.829  1.00 56.79    -0.129 NA
HETATM   19  N38   D T2601     244.497 165.025 216.450  1.00 60.89    -0.223 NA
HETATM   20  N36   D T2601     245.064 161.385 216.188  1.00 62.69    -0.145 NA
HETATM   21  C39   D T2601     244.319 165.882 215.376  1.00 53.90     0.109 A 
ENDBRANCH  12  13
ENDBRANCH   6  11
ENDBRANCH   2   4
BRANCH   1  22
HETATM   22  C11   D T2601     240.636 173.508 210.806  1.00 54.10     0.085 A 
HETATM   23  C12   D T2601     240.038 173.735 212.043  1.00 44.78     0.023 A 
HETATM   24  C13   D T2601     239.535 175.001 212.411  1.00 45.32     0.071 A 
HETATM   25  C14   D T2601     239.661 176.084 211.487  1.00 49.02     0.015 A 
HETATM   26  C15   D T2601     240.266 175.831 210.255  1.00 60.33    -0.001 A 
HETATM   27  C16   D T2601     240.750 174.561 209.912  1.00 55.57     0.019 A 
BRANCH  24  28
HETATM   28  C25   D T2601     238.892 175.166 213.795  1.00 59.37     0.419 C 
HETATM   29  F26   D T2601     237.635 175.681 213.688  1.00 68.99    -0.166 F 
HETATM   30  F27   D T2601     238.824 173.946 214.396  1.00 54.12    -0.166 F 
HETATM   31  F28   D T2601     239.661 175.996 214.558  1.00 77.73    -0.166 F 
ENDBRANCH  24  28
BRANCH  25  32
HETATM   32  C17   D T2601     239.140 177.533 211.805  1.00 46.42     0.277 C 
BRANCH  32  33
HETATM   33  N18   D T2601     238.413 177.955 210.769  1.00 63.20     0.146 N 
HETATM   34  C19   D T2601     238.677 179.213 210.505  1.00 56.59     0.286 C 
HETATM   35  C20   D T2601     237.654 179.903 209.584  1.00 57.91     0.286 C 
HETATM   36  N21   D T2601     236.860 179.006 209.023  1.00 61.09     0.143 N 
HETATM   37  C22   D T2601     236.202 178.366 209.967  1.00 58.33     0.286 C 
HETATM   38  C24   D T2601     236.015 179.604 208.233  1.00 58.82     0.285 C 
HETATM   39  C23   D T2601     237.152 177.685 210.955  1.00 60.02     0.286 C 
ENDBRANCH  32  33
ENDBRANCH  25  32
ENDBRANCH   1  22
TORSDOF 7
ENDMDL
MODEL 7
REMARK VINA RESULT:      -8.4      4.036     12.609
REMARK  7 active torsions:
REMARK  status: ('A' for Active; 'I' for Inactive)
REMARK    1  A    between atoms: C13_1  and  C25_22 
REMARK    2  A    between atoms: C17_3  and  C14_7 
REMARK    3  A    between atoms: C17_3  and  N18_34 
REMARK    4  A    between atoms: C11_5  and  N10_10 
REMARK       I    between atoms: N10_10  and  C08_18 
REMARK    5  A    between atoms: C03_13  and  C29_23 
REMARK    6  A    between atoms: C05_15  and  C08_18 
REMARK    7  A    between atoms: C30_24  and  C31_25 
ROOT
HETATM    1  N10   D T2601     241.990 173.392 212.011  1.00 54.54    -0.208 NA
HETATM    2  C08   D T2601     241.183 173.344 213.234  1.00 52.16     0.279 C 
HETATM    3  O09   D T2601     241.374 172.518 214.056  1.00 52.08    -0.265 OA
ENDROOT
BRANCH   2   4
HETATM    4  C05   D T2601     240.073 174.392 213.478  1.00 55.16     0.059 A 
HETATM    5  C04   D T2601     239.698 175.223 212.433  1.00 57.21     0.013 A 
HETATM    6  C03   D T2601     238.708 176.166 212.624  1.00 54.59     0.038 A 
HETATM    7  C02   D T2601     238.085 176.286 213.857  1.00 41.46    -0.014 A 
HETATM    8  C01   D T2601     236.996 177.331 214.057  1.00 47.17     0.032 C 
HETATM    9  C07   D T2601     238.456 175.454 214.903  1.00 46.83    -0.004 A 
HETATM   10  C06   D T2601     239.452 174.504 214.714  1.00 54.40     0.004 A 
BRANCH   6  11
HETATM   11  C29   D T2601     238.312 177.074 211.453  1.00 62.01    -0.060 C 
HETATM   12  C30   D T2601     238.002 177.792 210.550  1.00 59.38    -0.058 C 
BRANCH  12  13
HETATM   13  C31   D T2601     237.589 178.716 209.393  1.00 50.79     0.061 A 
HETATM   14  C32   D T2601     237.189 178.194 208.177  1.00 52.21     0.015 A 
HETATM   15  C33   D T2601     236.845 179.053 207.221  1.00 50.05     0.059 A 
HETATM   16  C34   D T2601     236.880 180.467 207.420  1.00 52.57     0.185 A 
HETATM   17  C37   D T2601     236.384 178.999 205.856  1.00 58.30     0.125 A 
HETATM   18  N35   D T2601     236.436 180.902 206.137  1.00 56.79    -0.129 NA
HETATM   19  N38   D T2601     237.256 181.026 208.566  1.00 60.89    -0.223 NA
HETATM   20  N36   D T2601     236.132 180.050 205.187  1.00 62.69    -0.145 NA
HETATM   21  C39   D T2601     237.617 180.143 209.571  1.00 53.90     0.109 A 
ENDBRANCH  12  13
ENDBRANCH   6  11
ENDBRANCH   2   4
BRANCH   1  22
HETATM   22  C11   D T2601     243.072 172.401 211.758  1.00 54.10     0.085 A 
HETATM   23  C12   D T2601     242.812 171.196 211.109  1.00 44.78     0.023 A 
HETATM   24  C13   D T2601     243.825 170.243 210.866  1.00 45.32     0.071 A 
HETATM   25  C14   D T2601     245.158 170.536 211.290  1.00 49.02     0.015 A 
HETATM   26  C15   D T2601     245.391 171.750 211.936  1.00 60.33    -0.001 A 
HETATM   27  C16   D T2601     244.366 172.677 212.171  1.00 55.57     0.019 A 
BRANCH  24  28
HETATM   28  C25   D T2601     243.454 168.941 210.143  1.00 59.37     0.419 C 
HETATM   29  F26   D T2601     242.175 168.992 209.676  1.00 68.99    -0.166 F 
HETATM   30  F27   D T2601     244.304 168.763 209.094  1.00 54.12    -0.166 F 
HETATM   31  F28   D T2601     243.584 167.890 211.003  1.00 77.73    -0.166 F 
ENDBRANCH  24  28
BRANCH  25  32
HETATM   32  C17   D T2601     246.355 169.543 211.061  1.00 46.42     0.277 C 
BRANCH  32  33
HETATM   33  N18   D T2601     246.891 169.250 212.248  1.00 63.20     0.146 N 
HETATM   34  C19   D T2601     248.200 169.207 212.162  1.00 56.59     0.286 C 
HETATM   35  C20   D T2601     248.898 168.532 213.357  1.00 57.91     0.286 C 
HETATM   36  N21   D T2601     248.049 168.376 214.359  1.00 61.09     0.143 N 
HETATM   37  C22   D T2601     247.059 167.601 213.967  1.00 58.33     0.286 C 
HETATM   38  C24   D T2601     248.661 167.823 215.367  1.00 58.82     0.285 C 
HETATM   39  C23   D T2601     246.337 168.183 212.748  1.00 60.02     0.286 C 
ENDBRANCH  32  33
ENDBRANCH  25  32
ENDBRANCH   1  22
TORSDOF 7
ENDMDL
MODEL 8
REMARK VINA RESULT:      -8.3      2.670      3.061
REMARK  7 active torsions:
REMARK  status: ('A' for Active; 'I' for Inactive)
REMARK    1  A    between atoms: C13_1  and  C25_22 
REMARK    2  A    between atoms: C17_3  and  C14_7 
REMARK    3  A    between atoms: C17_3  and  N18_34 
REMARK    4  A    between atoms: C11_5  and  N10_10 
REMARK       I    between atoms: N10_10  and  C08_18 
REMARK    5  A    between atoms: C03_13  and  C29_23 
REMARK    6  A    between atoms: C05_15  and  C08_18 
REMARK    7  A    between atoms: C30_24  and  C31_25 
ROOT
HETATM    1  N10   D T2601     241.923 174.020 211.238  1.00 54.54    -0.208 NA
HETATM    2  C08   D T2601     243.274 174.515 210.957  1.00 52.16     0.279 C 
HETATM    3  O09   D T2601     243.477 175.668 210.796  1.00 52.08    -0.265 OA
ENDROOT
BRANCH   2   4
HETATM    4  C05   D T2601     244.466 173.534 210.882  1.00 55.16     0.059 A 
HETATM    5  C04   D T2601     244.296 172.241 211.353  1.00 57.21     0.013 A 
HETATM    6  C03   D T2601     245.343 171.343 211.297  1.00 54.59     0.038 A 
HETATM    7  C02   D T2601     246.567 171.730 210.770  1.00 41.46    -0.014 A 
HETATM    8  C01   D T2601     247.717 170.733 210.715  1.00 47.17     0.032 C 
HETATM    9  C07   D T2601     246.739 173.021 210.295  1.00 46.83    -0.004 A 
HETATM   10  C06   D T2601     245.686 173.927 210.351  1.00 54.40     0.004 A 
BRANCH   6  11
HETATM   11  C29   D T2601     245.131 169.919 211.825  1.00 62.01    -0.060 C 
HETATM   12  C30   D T2601     244.973 168.805 212.225  1.00 59.38    -0.058 C 
BRANCH  12  13
HETATM   13  C31   D T2601     244.764 167.368 212.729  1.00 50.79     0.061 A 
HETATM   14  C32   D T2601     245.629 166.354 212.359  1.00 52.21     0.015 A 
HETATM   15  C33   D T2601     245.387 165.135 212.833  1.00 50.05     0.059 A 
HETATM   16  C34   D T2601     244.282 164.858 213.694  1.00 52.57     0.185 A 
HETATM   17  C37   D T2601     245.971 163.820 212.738  1.00 58.30     0.125 A 
HETATM   18  N35   D T2601     244.477 163.461 213.897  1.00 56.79    -0.129 NA
HETATM   19  N38   D T2601     243.418 165.791 214.083  1.00 60.89    -0.223 NA
HETATM   20  N36   D T2601     245.476 162.816 213.342  1.00 62.69    -0.145 NA
HETATM   21  C39   D T2601     243.657 167.067 213.596  1.00 53.90     0.109 A 
ENDBRANCH  12  13
ENDBRANCH   6  11
ENDBRANCH   2   4
BRANCH   1  22
HETATM   22  C11   D T2601     240.761 174.947 211.326  1.00 54.10     0.085 A 
HETATM   23  C12   D T2601     240.178 175.261 212.551  1.00 44.78     0.023 A 
HETATM   24  C13   D T2601     239.072 176.133 212.652  1.00 45.32     0.071 A 
HETATM   25  C14   D T2601     238.549 176.718 211.457  1.00 49.02     0.015 A 
HETATM   26  C15   D T2601     239.154 176.388 210.244  1.00 60.33    -0.001 A 
HETATM   27  C16   D T2601     240.247 175.514 210.171  1.00 55.57     0.019 A 
BRANCH  24  28
HETATM   28  C25   D T2601     238.489 176.428 214.041  1.00 59.37     0.419 C 
HETATM   29  F26   D T2601     238.546 177.761 214.318  1.00 68.99    -0.166 F 
HETATM   30  F27   D T2601     237.190 176.023 214.069  1.00 54.12    -0.166 F 
HETATM   31  F28   D T2601     239.191 175.735 214.985  1.00 77.73    -0.166 F 
ENDBRANCH  24  28
BRANCH  25  32
HETATM   32  C17   D T2601     237.326 177.706 211.465  1.00 46.42     0.277 C 
BRANCH  32  33
HETATM   33  N18   D T2601     237.295 178.345 210.294  1.00 63.20     0.146 N 
HETATM   34  C19   D T2601     237.745 179.571 210.428  1.00 56.59     0.286 C 
HETATM   35  C20   D T2601     237.422 180.505 209.247  1.00 57.91     0.286 C 
HETATM   36  N21   D T2601     236.992 179.805 208.210  1.00 61.09     0.143 N 
HETATM   37  C22   D T2601     235.889 179.170 208.549  1.00 58.33     0.286 C 
HETATM   38  C24   D T2601     236.742 180.608 207.216  1.00 58.82     0.285 C 
HETATM   39  C23   D T2601     236.115 178.248 209.751  1.00 60.02     0.286 C 
ENDBRANCH  32  33
ENDBRANCH  25  32
ENDBRANCH   1  22
TORSDOF 7
ENDMDL
MODEL 9
REMARK VINA RESULT:      -8.2      4.051     12.224
REMARK  7 active torsions:
REMARK  status: ('A' for Active; 'I' for Inactive)
REMARK    1  A    between atoms: C13_1  and  C25_22 
REMARK    2  A    between atoms: C17_3  and  C14_7 
REMARK    3  A    between atoms: C17_3  and  N18_34 
REMARK    4  A    between atoms: C11_5  and  N10_10 
REMARK       I    between atoms: N10_10  and  C08_18 
REMARK    5  A    between atoms: C03_13  and  C29_23 
REMARK    6  A    between atoms: C05_15  and  C08_18 
REMARK    7  A    between atoms: C30_24  and  C31_25 
ROOT
HETATM    1  N10   D T2601     241.858 173.322 211.981  1.00 54.54    -0.208 NA
HETATM    2  C08   D T2601     241.112 173.338 213.244  1.00 52.16     0.279 C 
HETATM    3  O09   D T2601     241.369 172.579 214.111  1.00 52.08    -0.265 OA
ENDROOT
BRANCH   2   4
HETATM    4  C05   D T2601     239.980 174.367 213.468  1.00 55.16     0.059 A 
HETATM    5  C04   D T2601     239.633 175.215 212.427  1.00 57.21     0.013 A 
HETATM    6  C03   D T2601     238.625 176.142 212.600  1.00 54.59     0.038 A 
HETATM    7  C02   D T2601     237.956 176.229 213.812  1.00 41.46    -0.014 A 
HETATM    8  C01   D T2601     236.847 177.256 213.994  1.00 47.17     0.032 C 
HETATM    9  C07   D T2601     238.299 175.380 214.854  1.00 46.83    -0.004 A 
HETATM   10  C06   D T2601     239.313 174.446 214.683  1.00 54.40     0.004 A 
BRANCH   6  11
HETATM   11  C29   D T2601     238.260 177.069 211.434  1.00 62.01    -0.060 C 
HETATM   12  C30   D T2601     237.963 177.795 210.533  1.00 59.38    -0.058 C 
BRANCH  12  13
HETATM   13  C31   D T2601     237.571 178.721 209.371  1.00 50.79     0.061 A 
HETATM   14  C32   D T2601     237.178 178.200 208.151  1.00 52.21     0.015 A 
HETATM   15  C33   D T2601     236.852 179.061 207.191  1.00 50.05     0.059 A 
HETATM   16  C34   D T2601     236.898 180.475 207.387  1.00 52.57     0.185 A 
HETATM   17  C37   D T2601     236.404 179.009 205.821  1.00 58.30     0.125 A 
HETATM   18  N35   D T2601     236.471 180.912 206.099  1.00 56.79    -0.129 NA
HETATM   19  N38   D T2601     237.268 181.032 208.537  1.00 60.89    -0.223 NA
HETATM   20  N36   D T2601     236.168 180.061 205.148  1.00 62.69    -0.145 NA
HETATM   21  C39   D T2601     237.611 180.148 209.546  1.00 53.90     0.109 A 
ENDBRANCH  12  13
ENDBRANCH   6  11
ENDBRANCH   2   4
BRANCH   1  22
HETATM   22  C11   D T2601     242.960 172.348 211.746  1.00 54.10     0.085 A 
HETATM   23  C12   D T2601     242.734 171.151 211.071  1.00 44.78     0.023 A 
HETATM   24  C13   D T2601     243.765 170.213 210.844  1.00 45.32     0.071 A 
HETATM   25  C14   D T2601     245.081 170.515 211.312  1.00 49.02     0.015 A 
HETATM   26  C15   D T2601     245.280 171.723 211.983  1.00 60.33    -0.001 A 
HETATM   27  C16   D T2601     244.237 172.633 212.200  1.00 55.57     0.019 A 
BRANCH  24  28
HETATM   28  C25   D T2601     243.432 168.918 210.090  1.00 59.37     0.419 C 
HETATM   29  F26   D T2601     244.250 168.759 209.013  1.00 68.99    -0.166 F 
HETATM   30  F27   D T2601     243.598 167.863 210.934  1.00 54.12    -0.166 F 
HETATM   31  F28   D T2601     242.133 168.955 209.675  1.00 77.73    -0.166 F 
ENDBRANCH  24  28
BRANCH  25  32
HETATM   32  C17   D T2601     246.297 169.541 211.103  1.00 46.42     0.277 C 
BRANCH  32  33
HETATM   33  N18   D T2601     247.259 170.202 210.455  1.00 63.20     0.146 N 
HETATM   34  C19   D T2601     247.427 169.705 209.252  1.00 56.59     0.286 C 
HETATM   35  C20   D T2601     248.732 170.137 208.557  1.00 57.91     0.286 C 
HETATM   36  N21   D T2601     249.289 171.145 209.208  1.00 61.09     0.143 N 
HETATM   37  C22   D T2601     249.581 170.756 210.432  1.00 58.33     0.286 C 
HETATM   38  C24   D T2601     250.379 171.510 208.596  1.00 58.82     0.285 C 
HETATM   39  C23   D T2601     248.338 170.266 211.180  1.00 60.02     0.286 C 
ENDBRANCH  32  33
ENDBRANCH  25  32
ENDBRANCH   1  22
TORSDOF 7
ENDMDL
