MODEL 1
REMARK VINA RESULT:    -8.528      0.000      0.000
REMARK INTER + INTRA:         -12.146
REMARK INTER:                 -12.018
REMARK INTRA:                  -0.128
REMARK UNBOUND:                -0.128
REMARK  7 active torsions:
REMARK  status: ('A' for Active; 'I' for Inactive)
REMARK    1  A    between atoms: C13_1  and  C25_22 
REMARK    2  A    between atoms: C17_3  and  C14_7 
REMARK    3  A    between atoms: C17_3  and  N18_34 
REMARK    4  A    between atoms: C11_5  and  N10_10 
REMARK       I    between atoms: N10_10  and  C08_18 
REMARK    5  A    between atoms: C03_13  and  C29_23 
REMARK    6  A    between atoms: C05_15  and  C08_18 
REMARK    7  A    between atoms: C30_24  and  C31_25 
ROOT
HETATM    1  N10   D T2601     242.727 171.244 211.957  1.00 54.54    -0.208 NA
HETATM    2  C08   D T2601     243.596 170.770 213.039  1.00 52.16     0.279 C 
HETATM    3  O09   D T2601     243.480 171.187 214.138  1.00 52.08    -0.265 OA
ENDROOT
BRANCH   2   4
HETATM    4  C05   D T2601     244.676 169.699 212.761  1.00 55.16     0.059 A 
HETATM    5  C04   D T2601     244.620 168.500 213.454  1.00 57.21     0.013 A 
HETATM    6  C03   D T2601     245.571 167.526 213.224  1.00 54.59     0.038 A 
HETATM    7  C02   D T2601     246.584 167.742 212.301  1.00 41.46    -0.014 A 
HETATM    8  C01   D T2601     247.629 166.662 212.056  1.00 47.17     0.032 C 
HETATM    9  C07   D T2601     246.641 168.940 211.604  1.00 46.83    -0.004 A 
HETATM   10  C06   D T2601     245.685 169.922 211.834  1.00 54.40     0.004 A 
BRANCH   6  11
HETATM   11  C29   D T2601     245.487 166.207 214.003  1.00 62.01    -0.060 C 
HETATM   12  C30   D T2601     245.417 165.187 214.621  1.00 59.38    -0.058 C 
BRANCH  12  13
HETATM   13  C31   D T2601     245.336 163.880 215.425  1.00 50.79     0.061 A 
HETATM   14  C32   D T2601     246.114 162.788 215.083  1.00 52.21     0.015 A 
HETATM   15  C33   D T2601     245.994 161.690 215.823  1.00 50.05     0.059 A 
HETATM   16  C34   D T2601     245.101 161.616 216.935  1.00 52.57     0.185 A 
HETATM   17  C37   D T2601     246.559 160.364 215.862  1.00 58.30     0.125 A 
HETATM   18  N35   D T2601     245.352 160.278 217.358  1.00 56.79    -0.129 NA
HETATM   19  N38   D T2601     244.329 162.632 217.311  1.00 60.89    -0.223 NA
HETATM   20  N36   D T2601     246.217 159.510 216.739  1.00 62.69    -0.145 NA
HETATM   21  C39   D T2601     244.444 163.783 216.548  1.00 53.90     0.109 A 
ENDBRANCH  12  13
ENDBRANCH   6  11
ENDBRANCH   2   4
BRANCH   1  22
HETATM   22  C11   D T2601     241.673 172.267 212.202  1.00 54.10     0.085 A 
HETATM   23  C12   D T2601     240.614 172.019 213.071  1.00 44.78     0.023 A 
HETATM   24  C13   D T2601     239.603 172.975 213.310  1.00 45.32     0.071 A 
HETATM   25  C14   D T2601     239.683 174.239 212.647  1.00 49.02     0.015 A 
HETATM   26  C15   D T2601     240.756 174.461 211.783  1.00 60.33    -0.001 A 
HETATM   27  C16   D T2601     241.743 173.492 211.558  1.00 55.57     0.019 A 
BRANCH  24  28
HETATM   28  C25   D T2601     238.471 172.624 214.286  1.00 59.37     0.419 C 
HETATM   29  F26   D T2601     237.259 172.973 213.769  1.00 68.99    -0.166 F 
HETATM   30  F27   D T2601     238.487 171.281 214.512  1.00 54.12    -0.166 F 
HETATM   31  F28   D T2601     238.669 173.277 215.467  1.00 77.73    -0.166 F 
ENDBRANCH  24  28
BRANCH  25  32
HETATM   32  C17   D T2601     238.612 175.371 212.852  1.00 46.42     0.277 C 
BRANCH  32  33
HETATM   33  N18   D T2601     238.386 175.954 211.673  1.00 63.20     0.146 N 
HETATM   34  C19   D T2601     237.456 176.873 211.786  1.00 56.59     0.286 C 
HETATM   35  C20   D T2601     236.861 177.350 210.448  1.00 57.91     0.286 C 
HETATM   36  N21   D T2601     237.605 176.932 209.438  1.00 61.09     0.143 N 
HETATM   37  C22   D T2601     237.625 175.615 209.435  1.00 58.33     0.286 C 
HETATM   38  C24   D T2601     237.099 177.361 208.317  1.00 58.82     0.285 C 
HETATM   39  C23   D T2601     238.165 175.057 210.755  1.00 60.02     0.286 C 
ENDBRANCH  32  33
ENDBRANCH  25  32
ENDBRANCH   1  22
TORSDOF 7
ENDMDL
MODEL 2
REMARK VINA RESULT:    -8.399     16.881     23.557
REMARK INTER + INTRA:         -11.964
REMARK INTER:                 -10.841
REMARK INTRA:                  -1.123
REMARK UNBOUND:                -0.128
REMARK  7 active torsions:
REMARK  status: ('A' for Active; 'I' for Inactive)
REMARK    1  A    between atoms: C13_1  and  C25_22 
REMARK    2  A    between atoms: C17_3  and  C14_7 
REMARK    3  A    between atoms: C17_3  and  N18_34 
REMARK    4  A    between atoms: C11_5  and  N10_10 
REMARK       I    between atoms: N10_10  and  C08_18 
REMARK    5  A    between atoms: C03_13  and  C29_23 
REMARK    6  A    between atoms: C05_15  and  C08_18 
REMARK    7  A    between atoms: C30_24  and  C31_25 
ROOT
HETATM    1  N10   D T2601     229.452 184.110 217.615  1.00 54.54    -0.208 NA
HETATM    2  C08   D T2601     228.047 184.527 217.679  1.00 52.16     0.279 C 
HETATM    3  O09   D T2601     227.258 183.911 218.305  1.00 52.08    -0.265 OA
ENDROOT
BRANCH   2   4
HETATM    4  C05   D T2601     227.576 185.798 216.935  1.00 55.16     0.059 A 
HETATM    5  C04   D T2601     228.505 186.785 216.645  1.00 57.21     0.013 A 
HETATM    6  C03   D T2601     228.111 187.929 215.980  1.00 54.59     0.038 A 
HETATM    7  C02   D T2601     226.788 188.095 215.600  1.00 41.46    -0.014 A 
HETATM    8  C01   D T2601     226.363 189.362 214.870  1.00 47.17     0.032 C 
HETATM    9  C07   D T2601     225.856 187.109 215.886  1.00 46.83    -0.004 A 
HETATM   10  C06   D T2601     226.250 185.956 216.555  1.00 54.40     0.004 A 
BRANCH   6  11
HETATM   11  C29   D T2601     229.158 189.006 215.671  1.00 62.01    -0.060 C 
HETATM   12  C30   D T2601     229.973 189.842 215.417  1.00 59.38    -0.058 C 
BRANCH  12  13
HETATM   13  C31   D T2601     231.031 190.906 215.087  1.00 50.79     0.061 A 
HETATM   14  C32   D T2601     231.487 191.778 216.059  1.00 52.21     0.015 A 
HETATM   15  C33   D T2601     232.404 192.673 215.703  1.00 50.05     0.059 A 
HETATM   16  C34   D T2601     232.914 192.752 214.371  1.00 52.57     0.185 A 
HETATM   17  C37   D T2601     233.150 193.739 216.325  1.00 58.30     0.125 A 
HETATM   18  N35   D T2601     233.829 193.835 214.526  1.00 56.79    -0.129 NA
HETATM   19  N38   D T2601     232.513 191.942 213.395  1.00 60.89    -0.223 NA
HETATM   20  N36   D T2601     233.991 194.440 215.678  1.00 62.69    -0.145 NA
HETATM   21  C39   D T2601     231.558 191.004 213.752  1.00 53.90     0.109 A 
ENDBRANCH  12  13
ENDBRANCH   6  11
ENDBRANCH   2   4
BRANCH   1  22
HETATM   22  C11   D T2601     229.932 182.897 218.332  1.00 54.10     0.085 A 
HETATM   23  C12   D T2601     230.229 182.930 219.692  1.00 44.78     0.023 A 
HETATM   24  C13   D T2601     230.692 181.791 220.386  1.00 45.32     0.071 A 
HETATM   25  C14   D T2601     230.843 180.565 219.666  1.00 49.02     0.015 A 
HETATM   26  C15   D T2601     230.536 180.559 218.305  1.00 60.33    -0.001 A 
HETATM   27  C16   D T2601     230.086 181.707 217.639  1.00 55.57     0.019 A 
BRANCH  24  28
HETATM   28  C25   D T2601     230.995 181.913 221.886  1.00 59.37     0.419 C 
HETATM   29  F26   D T2601     232.234 181.423 222.172  1.00 68.99    -0.166 F 
HETATM   30  F27   D T2601     230.943 183.226 222.239  1.00 54.12    -0.166 F 
HETATM   31  F28   D T2601     230.056 181.223 222.596  1.00 77.73    -0.166 F 
ENDBRANCH  24  28
BRANCH  25  32
HETATM   32  C17   D T2601     231.344 179.240 220.349  1.00 46.42     0.277 C 
BRANCH  32  33
HETATM   33  N18   D T2601     230.451 178.279 220.107  1.00 63.20     0.146 N 
HETATM   34  C19   D T2601     229.497 178.302 221.008  1.00 56.59     0.286 C 
HETATM   35  C20   D T2601     228.621 177.036 221.047  1.00 57.91     0.286 C 
HETATM   36  N21   D T2601     228.839 176.293 219.974  1.00 61.09     0.143 N 
HETATM   37  C22   D T2601     230.102 175.922 219.957  1.00 58.33     0.286 C 
HETATM   38  C24   D T2601     228.076 175.237 220.014  1.00 58.82     0.285 C 
HETATM   39  C23   D T2601     231.044 177.129 219.963  1.00 60.02     0.286 C 
ENDBRANCH  32  33
ENDBRANCH  25  32
ENDBRANCH   1  22
TORSDOF 7
ENDMDL
MODEL 3
REMARK VINA RESULT:    -8.153      5.041      6.388
REMARK INTER + INTRA:         -11.617
REMARK INTER:                 -11.243
REMARK INTRA:                  -0.374
REMARK UNBOUND:                -0.128
REMARK  7 active torsions:
REMARK  status: ('A' for Active; 'I' for Inactive)
REMARK    1  A    between atoms: C13_1  and  C25_22 
REMARK    2  A    between atoms: C17_3  and  C14_7 
REMARK    3  A    between atoms: C17_3  and  N18_34 
REMARK    4  A    between atoms: C11_5  and  N10_10 
REMARK       I    between atoms: N10_10  and  C08_18 
REMARK    5  A    between atoms: C03_13  and  C29_23 
REMARK    6  A    between atoms: C05_15  and  C08_18 
REMARK    7  A    between atoms: C30_24  and  C31_25 
ROOT
HETATM    1  N10   D T2601     240.281 172.780 215.536  1.00 54.54    -0.208 NA
HETATM    2  C08   D T2601     240.109 173.607 216.734  1.00 52.16     0.279 C 
HETATM    3  O09   D T2601     239.578 174.661 216.673  1.00 52.08    -0.265 OA
ENDROOT
BRANCH   2   4
HETATM    4  C05   D T2601     240.609 173.105 218.108  1.00 55.16     0.059 A 
HETATM    5  C04   D T2601     240.606 171.742 218.362  1.00 57.21     0.013 A 
HETATM    6  C03   D T2601     241.048 171.267 219.580  1.00 54.59     0.038 A 
HETATM    7  C02   D T2601     241.496 172.148 220.553  1.00 41.46    -0.014 A 
HETATM    8  C01   D T2601     241.980 171.614 221.894  1.00 47.17     0.032 C 
HETATM    9  C07   D T2601     241.504 173.512 220.301  1.00 46.83    -0.004 A 
HETATM   10  C06   D T2601     241.060 173.993 219.075  1.00 54.40     0.004 A 
BRANCH   6  11
HETATM   11  C29   D T2601     241.034 169.755 219.837  1.00 62.01    -0.060 C 
HETATM   12  C30   D T2601     241.017 168.575 220.024  1.00 59.38    -0.058 C 
BRANCH  12  13
HETATM   13  C31   D T2601     240.982 167.058 220.264  1.00 50.79     0.061 A 
HETATM   14  C32   D T2601     240.072 166.500 221.145  1.00 52.21     0.015 A 
HETATM   15  C33   D T2601     240.098 165.180 221.303  1.00 50.05     0.059 A 
HETATM   16  C34   D T2601     241.022 164.347 220.600  1.00 52.57     0.185 A 
HETATM   17  C37   D T2601     239.388 164.184 222.067  1.00 58.30     0.125 A 
HETATM   18  N35   D T2601     240.639 163.074 221.115  1.00 56.79    -0.129 NA
HETATM   19  N38   D T2601     241.918 164.826 219.743  1.00 60.89    -0.223 NA
HETATM   20  N36   D T2601     239.668 162.947 221.988  1.00 62.69    -0.145 NA
HETATM   21  C39   D T2601     241.903 166.200 219.569  1.00 53.90     0.109 A 
ENDBRANCH  12  13
ENDBRANCH   6  11
ENDBRANCH   2   4
BRANCH   1  22
HETATM   22  C11   D T2601     239.799 173.237 214.203  1.00 54.10     0.085 A 
HETATM   23  C12   D T2601     240.521 172.970 213.042  1.00 44.78     0.023 A 
HETATM   24  C13   D T2601     240.083 173.401 211.772  1.00 45.32     0.071 A 
HETATM   25  C14   D T2601     238.851 174.120 211.680  1.00 49.02     0.015 A 
HETATM   26  C15   D T2601     238.146 174.372 212.857  1.00 60.33    -0.001 A 
HETATM   27  C16   D T2601     238.608 173.938 214.107  1.00 55.57     0.019 A 
BRANCH  24  28
HETATM   28  C25   D T2601     240.938 173.064 210.542  1.00 59.37     0.419 C 
HETATM   29  F26   D T2601     242.014 172.305 210.892  1.00 68.99    -0.166 F 
HETATM   30  F27   D T2601     240.175 172.371 209.653  1.00 54.12    -0.166 F 
HETATM   31  F28   D T2601     241.366 174.220 209.956  1.00 77.73    -0.166 F 
ENDBRANCH  24  28
BRANCH  25  32
HETATM   32  C17   D T2601     238.273 174.636 210.311  1.00 46.42     0.277 C 
BRANCH  32  33
HETATM   33  N18   D T2601     238.382 175.966 210.284  1.00 63.20     0.146 N 
HETATM   34  C19   D T2601     237.231 176.526 210.576  1.00 56.59     0.286 C 
HETATM   35  C20   D T2601     237.141 178.024 210.225  1.00 57.91     0.286 C 
HETATM   36  N21   D T2601     238.342 178.506 209.952  1.00 61.09     0.143 N 
HETATM   37  C22   D T2601     238.835 177.867 208.912  1.00 58.33     0.286 C 
HETATM   38  C24   D T2601     238.249 179.776 209.678  1.00 58.82     0.285 C 
HETATM   39  C23   D T2601     238.917 176.359 209.164  1.00 60.02     0.286 C 
ENDBRANCH  32  33
ENDBRANCH  25  32
ENDBRANCH   1  22
TORSDOF 7
ENDMDL
MODEL 4
REMARK VINA RESULT:    -8.116      7.130      8.450
REMARK INTER + INTRA:         -11.565
REMARK INTER:                 -11.118
REMARK INTRA:                  -0.447
REMARK UNBOUND:                -0.128
REMARK  7 active torsions:
REMARK  status: ('A' for Active; 'I' for Inactive)
REMARK    1  A    between atoms: C13_1  and  C25_22 
REMARK    2  A    between atoms: C17_3  and  C14_7 
REMARK    3  A    between atoms: C17_3  and  N18_34 
REMARK    4  A    between atoms: C11_5  and  N10_10 
REMARK       I    between atoms: N10_10  and  C08_18 
REMARK    5  A    between atoms: C03_13  and  C29_23 
REMARK    6  A    between atoms: C05_15  and  C08_18 
REMARK    7  A    between atoms: C30_24  and  C31_25 
ROOT
HETATM    1  N10   D T2601     240.904 173.189 215.492  1.00 54.54    -0.208 NA
HETATM    2  C08   D T2601     240.336 173.249 216.843  1.00 52.16     0.279 C 
HETATM    3  O09   D T2601     239.219 173.588 217.018  1.00 52.08    -0.265 OA
ENDROOT
BRANCH   2   4
HETATM    4  C05   D T2601     241.192 172.851 218.067  1.00 55.16     0.059 A 
HETATM    5  C04   D T2601     242.528 173.221 218.097  1.00 57.21     0.013 A 
HETATM    6  C03   D T2601     243.314 172.880 219.179  1.00 54.59     0.038 A 
HETATM    7  C02   D T2601     242.773 172.167 220.239  1.00 41.46    -0.014 A 
HETATM    8  C01   D T2601     243.650 171.794 221.426  1.00 47.17     0.032 C 
HETATM    9  C07   D T2601     241.437 171.798 220.214  1.00 46.83    -0.004 A 
HETATM   10  C06   D T2601     240.643 172.141 219.126  1.00 54.40     0.004 A 
BRANCH   6  11
HETATM   11  C29   D T2601     244.789 173.300 219.187  1.00 62.01    -0.060 C 
HETATM   12  C30   D T2601     245.935 173.639 219.185  1.00 59.38    -0.058 C 
BRANCH  12  13
HETATM   13  C31   D T2601     247.410 174.071 219.168  1.00 50.79     0.061 A 
HETATM   14  C32   D T2601     248.042 174.388 217.980  1.00 52.21     0.015 A 
HETATM   15  C33   D T2601     249.319 174.755 218.041  1.00 50.05     0.059 A 
HETATM   16  C34   D T2601     250.033 174.826 219.276  1.00 52.57     0.185 A 
HETATM   17  C37   D T2601     250.356 175.160 217.124  1.00 58.30     0.125 A 
HETATM   18  N35   D T2601     251.306 175.251 218.795  1.00 56.79    -0.129 NA
HETATM   19  N38   D T2601     249.478 174.533 220.448  1.00 60.89    -0.223 NA
HETATM   20  N36   D T2601     251.527 175.459 217.519  1.00 62.69    -0.145 NA
HETATM   21  C39   D T2601     248.148 174.149 220.400  1.00 53.90     0.109 A 
ENDBRANCH  12  13
ENDBRANCH   6  11
ENDBRANCH   2   4
BRANCH   1  22
HETATM   22  C11   D T2601     240.097 173.557 214.296  1.00 54.10     0.085 A 
HETATM   23  C12   D T2601     239.236 174.651 214.314  1.00 44.78     0.023 A 
HETATM   24  C13   D T2601     238.458 175.011 213.192  1.00 45.32     0.071 A 
HETATM   25  C14   D T2601     238.575 174.231 211.999  1.00 49.02     0.015 A 
HETATM   26  C15   D T2601     239.446 173.141 212.008  1.00 60.33    -0.001 A 
HETATM   27  C16   D T2601     240.201 172.802 213.139  1.00 55.57     0.019 A 
BRANCH  24  28
HETATM   28  C25   D T2601     237.535 176.233 213.294  1.00 59.37     0.419 C 
HETATM   29  F26   D T2601     236.232 175.850 213.398  1.00 68.99    -0.166 F 
HETATM   30  F27   D T2601     237.878 176.951 214.399  1.00 54.12    -0.166 F 
HETATM   31  F28   D T2601     237.694 177.016 212.188  1.00 77.73    -0.166 F 
ENDBRANCH  24  28
BRANCH  25  32
HETATM   32  C17   D T2601     237.758 174.554 210.695  1.00 46.42     0.277 C 
BRANCH  32  33
HETATM   33  N18   D T2601     238.621 174.855 209.723  1.00 63.20     0.146 N 
HETATM   34  C19   D T2601     238.456 176.096 209.330  1.00 56.59     0.286 C 
HETATM   35  C20   D T2601     239.132 176.440 207.990  1.00 57.91     0.286 C 
HETATM   36  N21   D T2601     239.976 175.482 207.641  1.00 61.09     0.143 N 
HETATM   37  C22   D T2601     239.309 174.356 207.491  1.00 58.33     0.286 C 
HETATM   38  C24   D T2601     240.552 175.799 206.516  1.00 58.82     0.285 C 
HETATM   39  C23   D T2601     238.568 173.966 208.773  1.00 60.02     0.286 C 
ENDBRANCH  32  33
ENDBRANCH  25  32
ENDBRANCH   1  22
TORSDOF 7
ENDMDL
MODEL 5
REMARK VINA RESULT:    -7.968     15.595     22.880
REMARK INTER + INTRA:         -11.356
REMARK INTER:                 -10.324
REMARK INTRA:                  -1.032
REMARK UNBOUND:                -0.128
REMARK  7 active torsions:
REMARK  status: ('A' for Active; 'I' for Inactive)
REMARK    1  A    between atoms: C13_1  and  C25_22 
REMARK    2  A    between atoms: C17_3  and  C14_7 
REMARK    3  A    between atoms: C17_3  and  N18_34 
REMARK    4  A    between atoms: C11_5  and  N10_10 
REMARK       I    between atoms: N10_10  and  C08_18 
REMARK    5  A    between atoms: C03_13  and  C29_23 
REMARK    6  A    between atoms: C05_15  and  C08_18 
REMARK    7  A    between atoms: C30_24  and  C31_25 
ROOT
HETATM    1  N10   D T2601     229.765 183.060 218.910  1.00 54.54    -0.208 NA
HETATM    2  C08   D T2601     228.351 182.883 218.565  1.00 52.16     0.279 C 
HETATM    3  O09   D T2601     227.802 181.855 218.759  1.00 52.08    -0.265 OA
ENDROOT
BRANCH   2   4
HETATM    4  C05   D T2601     227.545 184.052 217.953  1.00 55.16     0.059 A 
HETATM    5  C04   D T2601     228.234 185.128 217.415  1.00 57.21     0.013 A 
HETATM    6  C03   D T2601     227.538 186.184 216.861  1.00 54.59     0.038 A 
HETATM    7  C02   D T2601     226.152 186.173 216.840  1.00 41.46    -0.014 A 
HETATM    8  C01   D T2601     225.394 187.344 216.228  1.00 47.17     0.032 C 
HETATM    9  C07   D T2601     225.459 185.097 217.374  1.00 46.83    -0.004 A 
HETATM   10  C06   D T2601     226.157 184.032 217.932  1.00 54.40     0.004 A 
BRANCH   6  11
HETATM   11  C29   D T2601     228.323 187.364 216.273  1.00 62.01    -0.060 C 
HETATM   12  C30   D T2601     228.938 188.274 215.804  1.00 59.38    -0.058 C 
BRANCH  12  13
HETATM   13  C31   D T2601     229.742 189.438 215.203  1.00 50.79     0.061 A 
HETATM   14  C32   D T2601     230.354 189.314 213.969  1.00 52.21     0.015 A 
HETATM   15  C33   D T2601     231.031 190.362 213.509  1.00 50.05     0.059 A 
HETATM   16  C34   D T2601     231.138 191.582 214.245  1.00 52.57     0.185 A 
HETATM   17  C37   D T2601     231.801 190.703 212.338  1.00 58.30     0.125 A 
HETATM   18  N35   D T2601     231.937 192.341 213.340  1.00 56.79    -0.129 NA
HETATM   19  N38   D T2601     230.572 191.759 215.435  1.00 60.89    -0.223 NA
HETATM   20  N36   D T2601     232.345 191.844 212.197  1.00 62.69    -0.145 NA
HETATM   21  C39   D T2601     229.863 190.675 215.927  1.00 53.90     0.109 A 
ENDBRANCH  12  13
ENDBRANCH   6  11
ENDBRANCH   2   4
BRANCH   1  22
HETATM   22  C11   D T2601     230.560 181.953 219.511  1.00 54.10     0.085 A 
HETATM   23  C12   D T2601     230.787 181.888 220.883  1.00 44.78     0.023 A 
HETATM   24  C13   D T2601     231.544 180.850 221.468  1.00 45.32     0.071 A 
HETATM   25  C14   D T2601     232.077 179.829 220.622  1.00 49.02     0.015 A 
HETATM   26  C15   D T2601     231.832 179.917 219.251  1.00 60.33    -0.001 A 
HETATM   27  C16   D T2601     231.083 180.963 218.695  1.00 55.57     0.019 A 
BRANCH  24  28
HETATM   28  C25   D T2601     231.746 180.852 222.990  1.00 59.37     0.419 C 
HETATM   29  F26   D T2601     233.061 180.683 223.305  1.00 68.99    -0.166 F 
HETATM   30  F27   D T2601     231.318 182.044 223.489  1.00 54.12    -0.166 F 
HETATM   31  F28   D T2601     231.011 179.847 223.548  1.00 77.73    -0.166 F 
ENDBRANCH  24  28
BRANCH  25  32
HETATM   32  C17   D T2601     232.925 178.628 221.177  1.00 46.42     0.277 C 
BRANCH  32  33
HETATM   33  N18   D T2601     232.186 177.519 221.098  1.00 63.20     0.146 N 
HETATM   34  C19   D T2601     231.982 177.018 222.293  1.00 56.59     0.286 C 
HETATM   35  C20   D T2601     231.462 175.568 222.298  1.00 57.91     0.286 C 
HETATM   36  N21   D T2601     231.066 175.215 221.086  1.00 61.09     0.143 N 
HETATM   37  C22   D T2601     232.091 175.285 220.263  1.00 58.33     0.286 C 
HETATM   38  C24   D T2601     230.613 173.995 221.114  1.00 58.82     0.285 C 
HETATM   39  C23   D T2601     232.696 176.691 220.232  1.00 60.02     0.286 C 
ENDBRANCH  32  33
ENDBRANCH  25  32
ENDBRANCH   1  22
TORSDOF 7
ENDMDL
MODEL 6
REMARK VINA RESULT:    -7.908      4.179      5.620
REMARK INTER + INTRA:         -11.272
REMARK INTER:                 -11.090
REMARK INTRA:                  -0.182
REMARK UNBOUND:                -0.128
REMARK  7 active torsions:
REMARK  status: ('A' for Active; 'I' for Inactive)
REMARK    1  A    between atoms: C13_1  and  C25_22 
REMARK    2  A    between atoms: C17_3  and  C14_7 
REMARK    3  A    between atoms: C17_3  and  N18_34 
REMARK    4  A    between atoms: C11_5  and  N10_10 
REMARK       I    between atoms: N10_10  and  C08_18 
REMARK    5  A    between atoms: C03_13  and  C29_23 
REMARK    6  A    between atoms: C05_15  and  C08_18 
REMARK    7  A    between atoms: C30_24  and  C31_25 
ROOT
HETATM    1  N10   D T2601     240.627 173.234 215.558  1.00 54.54    -0.208 NA
HETATM    2  C08   D T2601     240.097 173.500 216.899  1.00 52.16     0.279 C 
HETATM    3  O09   D T2601     239.054 174.034 217.045  1.00 52.08    -0.265 OA
ENDROOT
BRANCH   2   4
HETATM    4  C05   D T2601     240.891 173.067 218.152  1.00 55.16     0.059 A 
HETATM    5  C04   D T2601     241.243 171.733 218.292  1.00 57.21     0.013 A 
HETATM    6  C03   D T2601     241.954 171.321 219.401  1.00 54.59     0.038 A 
HETATM    7  C02   D T2601     242.318 172.235 220.378  1.00 41.46    -0.014 A 
HETATM    8  C01   D T2601     243.100 171.770 221.598  1.00 47.17     0.032 C 
HETATM    9  C07   D T2601     241.970 173.571 220.240  1.00 46.83    -0.004 A 
HETATM   10  C06   D T2601     241.255 173.989 219.124  1.00 54.40     0.004 A 
BRANCH   6  11
HETATM   11  C29   D T2601     242.331 169.840 219.533  1.00 62.01    -0.060 C 
HETATM   12  C30   D T2601     242.612 168.684 219.644  1.00 59.38    -0.058 C 
BRANCH  12  13
HETATM   13  C31   D T2601     242.977 167.199 219.800  1.00 50.79     0.061 A 
HETATM   14  C32   D T2601     243.777 166.564 218.867  1.00 52.21     0.015 A 
HETATM   15  C33   D T2601     244.053 165.278 219.066  1.00 50.05     0.059 A 
HETATM   16  C34   D T2601     243.554 164.558 220.194  1.00 52.57     0.185 A 
HETATM   17  C37   D T2601     244.803 164.236 218.410  1.00 58.30     0.125 A 
HETATM   18  N35   D T2601     244.123 163.277 219.934  1.00 56.79    -0.129 NA
HETATM   19  N38   D T2601     242.782 165.115 221.122  1.00 60.89    -0.223 NA
HETATM   20  N36   D T2601     244.872 163.056 218.880  1.00 62.69    -0.145 NA
HETATM   21  C39   D T2601     242.485 166.455 220.927  1.00 53.90     0.109 A 
ENDBRANCH  12  13
ENDBRANCH   6  11
ENDBRANCH   2   4
BRANCH   1  22
HETATM   22  C11   D T2601     239.876 173.632 214.335  1.00 54.10     0.085 A 
HETATM   23  C12   D T2601     239.006 174.719 214.343  1.00 44.78     0.023 A 
HETATM   24  C13   D T2601     238.280 175.106 213.195  1.00 45.32     0.071 A 
HETATM   25  C14   D T2601     238.461 174.363 211.988  1.00 49.02     0.015 A 
HETATM   26  C15   D T2601     239.341 173.280 212.006  1.00 60.33    -0.001 A 
HETATM   27  C16   D T2601     240.043 172.913 213.163  1.00 55.57     0.019 A 
BRANCH  24  28
HETATM   28  C25   D T2601     237.343 176.318 213.289  1.00 59.37     0.419 C 
HETATM   29  F26   D T2601     237.372 177.044 212.136  1.00 68.99    -0.166 F 
HETATM   30  F27   D T2601     236.073 175.876 213.504  1.00 54.12    -0.166 F 
HETATM   31  F28   D T2601     237.723 177.107 214.335  1.00 77.73    -0.166 F 
ENDBRANCH  24  28
BRANCH  25  32
HETATM   32  C17   D T2601     237.706 174.719 210.655  1.00 46.42     0.277 C 
BRANCH  32  33
HETATM   33  N18   D T2601     238.615 174.947 209.705  1.00 63.20     0.146 N 
HETATM   34  C19   D T2601     238.536 176.187 209.283  1.00 56.59     0.286 C 
HETATM   35  C20   D T2601     239.272 176.460 207.958  1.00 57.91     0.286 C 
HETATM   36  N21   D T2601     240.068 175.448 207.655  1.00 61.09     0.143 N 
HETATM   37  C22   D T2601     239.342 174.360 207.508  1.00 58.33     0.286 C 
HETATM   38  C24   D T2601     240.697 175.705 206.544  1.00 58.82     0.285 C 
HETATM   39  C23   D T2601     238.540 174.042 208.772  1.00 60.02     0.286 C 
ENDBRANCH  32  33
ENDBRANCH  25  32
ENDBRANCH   1  22
TORSDOF 7
ENDMDL
MODEL 7
REMARK VINA RESULT:    -7.794      6.885     11.587
REMARK INTER + INTRA:         -11.111
REMARK INTER:                  -9.977
REMARK INTRA:                  -1.134
REMARK UNBOUND:                -0.128
REMARK  7 active torsions:
REMARK  status: ('A' for Active; 'I' for Inactive)
REMARK    1  A    between atoms: C13_1  and  C25_22 
REMARK    2  A    between atoms: C17_3  and  C14_7 
REMARK    3  A    between atoms: C17_3  and  N18_34 
REMARK    4  A    between atoms: C11_5  and  N10_10 
REMARK       I    between atoms: N10_10  and  C08_18 
REMARK    5  A    between atoms: C03_13  and  C29_23 
REMARK    6  A    between atoms: C05_15  and  C08_18 
REMARK    7  A    between atoms: C30_24  and  C31_25 
ROOT
HETATM    1  N10   D T2601     246.049 172.338 215.811  1.00 54.54    -0.208 NA
HETATM    2  C08   D T2601     246.129 170.886 215.626  1.00 52.16     0.279 C 
HETATM    3  O09   D T2601     246.872 170.231 216.270  1.00 52.08    -0.265 OA
ENDROOT
BRANCH   2   4
HETATM    4  C05   D T2601     245.225 170.180 214.589  1.00 55.16     0.059 A 
HETATM    5  C04   D T2601     244.267 170.928 213.921  1.00 57.21     0.013 A 
HETATM    6  C03   D T2601     243.448 170.323 212.989  1.00 54.59     0.038 A 
HETATM    7  C02   D T2601     243.578 168.969 212.718  1.00 41.46    -0.014 A 
HETATM    8  C01   D T2601     242.668 168.311 211.690  1.00 47.17     0.032 C 
HETATM    9  C07   D T2601     244.538 168.219 213.383  1.00 46.83    -0.004 A 
HETATM   10  C06   D T2601     245.364 168.826 214.321  1.00 54.40     0.004 A 
BRANCH   6  11
HETATM   11  C29   D T2601     242.396 171.170 212.263  1.00 62.01    -0.060 C 
HETATM   12  C30   D T2601     241.580 171.842 211.707  1.00 59.38    -0.058 C 
BRANCH  12  13
HETATM   13  C31   D T2601     240.523 172.707 211.002  1.00 50.79     0.061 A 
HETATM   14  C32   D T2601     239.959 173.798 211.640  1.00 52.21     0.015 A 
HETATM   15  C33   D T2601     239.051 174.501 210.969  1.00 50.05     0.059 A 
HETATM   16  C34   D T2601     238.656 174.164 209.639  1.00 52.57     0.185 A 
HETATM   17  C37   D T2601     238.224 175.661 211.194  1.00 58.30     0.125 A 
HETATM   18  N35   D T2601     237.700 175.194 209.402  1.00 56.79    -0.129 NA
HETATM   19  N38   D T2601     239.162 173.128 208.976  1.00 60.89    -0.223 NA
HETATM   20  N36   D T2601     237.424 176.101 210.309  1.00 62.69    -0.145 NA
HETATM   21  C39   D T2601     240.109 172.385 209.663  1.00 53.90     0.109 A 
ENDBRANCH  12  13
ENDBRANCH   6  11
ENDBRANCH   2   4
BRANCH   1  22
HETATM   22  C11   D T2601     246.902 173.039 216.811  1.00 54.10     0.085 A 
HETATM   23  C12   D T2601     246.470 173.233 218.121  1.00 44.78     0.023 A 
HETATM   24  C13   D T2601     247.262 173.901 219.079  1.00 45.32     0.071 A 
HETATM   25  C14   D T2601     248.552 174.378 218.690  1.00 49.02     0.015 A 
HETATM   26  C15   D T2601     248.962 174.168 217.373  1.00 60.33    -0.001 A 
HETATM   27  C16   D T2601     248.152 173.508 216.439  1.00 55.57     0.019 A 
BRANCH  24  28
HETATM   28  C25   D T2601     246.712 174.072 220.502  1.00 59.37     0.419 C 
HETATM   29  F26   D T2601     246.563 175.390 220.811  1.00 68.99    -0.166 F 
HETATM   30  F27   D T2601     245.500 173.457 220.581  1.00 54.12    -0.166 F 
HETATM   31  F28   D T2601     247.566 173.488 221.392  1.00 77.73    -0.166 F 
ENDBRANCH  24  28
BRANCH  25  32
HETATM   32  C17   D T2601     249.512 175.126 219.685  1.00 46.42     0.277 C 
BRANCH  32  33
HETATM   33  N18   D T2601     249.737 176.353 219.208  1.00 63.20     0.146 N 
HETATM   34  C19   D T2601     251.022 176.623 219.225  1.00 56.59     0.286 C 
HETATM   35  C20   D T2601     251.365 178.113 219.046  1.00 57.91     0.286 C 
HETATM   36  N21   D T2601     250.302 178.785 218.636  1.00 61.09     0.143 N 
HETATM   37  C22   D T2601     249.354 178.685 219.545  1.00 58.33     0.286 C 
HETATM   38  C24   D T2601     250.615 180.039 218.471  1.00 58.82     0.285 C 
HETATM   39  C23   D T2601     248.984 177.224 219.815  1.00 60.02     0.286 C 
ENDBRANCH  32  33
ENDBRANCH  25  32
ENDBRANCH   1  22
TORSDOF 7
ENDMDL
MODEL 8
REMARK VINA RESULT:    -7.786     17.704     23.641
REMARK INTER + INTRA:         -11.100
REMARK INTER:                 -10.139
REMARK INTRA:                  -0.961
REMARK UNBOUND:                -0.128
REMARK  7 active torsions:
REMARK  status: ('A' for Active; 'I' for Inactive)
REMARK    1  A    between atoms: C13_1  and  C25_22 
REMARK    2  A    between atoms: C17_3  and  C14_7 
REMARK    3  A    between atoms: C17_3  and  N18_34 
REMARK    4  A    between atoms: C11_5  and  N10_10 
REMARK       I    between atoms: N10_10  and  C08_18 
REMARK    5  A    between atoms: C03_13  and  C29_23 
REMARK    6  A    between atoms: C05_15  and  C08_18 
REMARK    7  A    between atoms: C30_24  and  C31_25 
ROOT
HETATM    1  N10   D T2601     227.241 183.592 217.680  1.00 54.54    -0.208 NA
HETATM    2  C08   D T2601     227.972 184.857 217.812  1.00 52.16     0.279 C 
HETATM    3  O09   D T2601     228.933 184.934 218.494  1.00 52.08    -0.265 OA
ENDROOT
BRANCH   2   4
HETATM    4  C05   D T2601     227.504 186.113 217.044  1.00 55.16     0.059 A 
HETATM    5  C04   D T2601     228.459 186.949 216.485  1.00 57.21     0.013 A 
HETATM    6  C03   D T2601     228.068 188.077 215.793  1.00 54.59     0.038 A 
HETATM    7  C02   D T2601     226.721 188.380 215.653  1.00 41.46    -0.014 A 
HETATM    8  C01   D T2601     226.300 189.628 214.890  1.00 47.17     0.032 C 
HETATM    9  C07   D T2601     225.763 187.545 216.209  1.00 46.83    -0.004 A 
HETATM   10  C06   D T2601     226.154 186.408 216.906  1.00 54.40     0.004 A 
BRANCH   6  11
HETATM   11  C29   D T2601     229.143 188.985 215.184  1.00 62.01    -0.060 C 
HETATM   12  C30   D T2601     229.972 189.695 214.698  1.00 59.38    -0.058 C 
BRANCH  12  13
HETATM   13  C31   D T2601     231.040 190.600 214.063  1.00 50.79     0.061 A 
HETATM   14  C32   D T2601     231.887 191.358 214.852  1.00 52.21     0.015 A 
HETATM   15  C33   D T2601     232.788 192.117 214.235  1.00 50.05     0.059 A 
HETATM   16  C34   D T2601     232.896 192.166 212.812  1.00 52.57     0.185 A 
HETATM   17  C37   D T2601     233.837 193.036 214.602  1.00 58.30     0.125 A 
HETATM   18  N35   D T2601     233.972 193.093 212.683  1.00 56.79    -0.129 NA
HETATM   19  N38   D T2601     232.110 191.461 212.003  1.00 60.89    -0.223 NA
HETATM   20  N36   D T2601     234.552 193.626 213.731  1.00 62.69    -0.145 NA
HETATM   21  C39   D T2601     231.166 190.665 212.633  1.00 53.90     0.109 A 
ENDBRANCH  12  13
ENDBRANCH   6  11
ENDBRANCH   2   4
BRANCH   1  22
HETATM   22  C11   D T2601     227.678 182.366 218.401  1.00 54.10     0.085 A 
HETATM   23  C12   D T2601     228.635 181.511 217.860  1.00 44.78     0.023 A 
HETATM   24  C13   D T2601     229.057 180.340 218.527  1.00 45.32     0.071 A 
HETATM   25  C14   D T2601     228.491 180.037 219.804  1.00 49.02     0.015 A 
HETATM   26  C15   D T2601     227.536 180.912 220.325  1.00 60.33    -0.001 A 
HETATM   27  C16   D T2601     227.130 182.064 219.638  1.00 55.57     0.019 A 
BRANCH  24  28
HETATM   28  C25   D T2601     230.117 179.452 217.860  1.00 59.37     0.419 C 
HETATM   29  F26   D T2601     229.569 178.282 217.428  1.00 68.99    -0.166 F 
HETATM   30  F27   D T2601     230.641 180.118 216.795  1.00 54.12    -0.166 F 
HETATM   31  F28   D T2601     231.114 179.187 218.754  1.00 77.73    -0.166 F 
ENDBRANCH  24  28
BRANCH  25  32
HETATM   32  C17   D T2601     228.899 178.763 220.629  1.00 46.42     0.277 C 
BRANCH  32  33
HETATM   33  N18   D T2601     228.029 177.789 220.356  1.00 63.20     0.146 N 
HETATM   34  C19   D T2601     227.152 177.672 221.325  1.00 56.59     0.286 C 
HETATM   35  C20   D T2601     226.335 176.366 221.296  1.00 57.91     0.286 C 
HETATM   36  N21   D T2601     226.494 175.749 220.137  1.00 61.09     0.143 N 
HETATM   37  C22   D T2601     227.766 175.445 219.983  1.00 58.33     0.286 C 
HETATM   38  C24   D T2601     225.782 174.659 220.123  1.00 58.82     0.285 C 
HETATM   39  C23   D T2601     228.655 176.690 220.045  1.00 60.02     0.286 C 
ENDBRANCH  32  33
ENDBRANCH  25  32
ENDBRANCH   1  22
TORSDOF 7
ENDMDL
MODEL 9
REMARK VINA RESULT:    -7.585     16.621     23.650
REMARK INTER + INTRA:         -10.818
REMARK INTER:                  -9.895
REMARK INTRA:                  -0.923
REMARK UNBOUND:                -0.128
REMARK  7 active torsions:
REMARK  status: ('A' for Active; 'I' for Inactive)
REMARK    1  A    between atoms: C13_1  and  C25_22 
REMARK    2  A    between atoms: C17_3  and  C14_7 
REMARK    3  A    between atoms: C17_3  and  N18_34 
REMARK    4  A    between atoms: C11_5  and  N10_10 
REMARK       I    between atoms: N10_10  and  C08_18 
REMARK    5  A    between atoms: C03_13  and  C29_23 
REMARK    6  A    between atoms: C05_15  and  C08_18 
REMARK    7  A    between atoms: C30_24  and  C31_25 
ROOT
HETATM    1  N10   D T2601     227.532 183.633 218.036  1.00 54.54    -0.208 NA
HETATM    2  C08   D T2601     228.450 184.692 217.607  1.00 52.16     0.279 C 
HETATM    3  O09   D T2601     229.616 184.584 217.760  1.00 52.08    -0.265 OA
ENDROOT
BRANCH   2   4
HETATM    4  C05   D T2601     227.905 185.970 216.928  1.00 55.16     0.059 A 
HETATM    5  C04   D T2601     228.784 187.005 216.650  1.00 57.21     0.013 A 
HETATM    6  C03   D T2601     228.324 188.156 216.043  1.00 54.59     0.038 A 
HETATM    7  C02   D T2601     226.984 188.283 215.710  1.00 41.46    -0.014 A 
HETATM    8  C01   D T2601     226.486 189.558 215.043  1.00 47.17     0.032 C 
HETATM    9  C07   D T2601     226.102 187.248 215.985  1.00 46.83    -0.004 A 
HETATM   10  C06   D T2601     226.562 186.088 216.595  1.00 54.40     0.004 A 
BRANCH   6  11
HETATM   11  C29   D T2601     229.317 189.287 215.746  1.00 62.01    -0.060 C 
HETATM   12  C30   D T2601     230.101 190.160 215.520  1.00 59.38    -0.058 C 
BRANCH  12  13
HETATM   13  C31   D T2601     231.111 191.284 215.242  1.00 50.79     0.061 A 
HETATM   14  C32   D T2601     231.826 191.865 216.274  1.00 52.21     0.015 A 
HETATM   15  C33   D T2601     232.684 192.832 215.961  1.00 50.05     0.059 A 
HETATM   16  C34   D T2601     232.878 193.271 214.616  1.00 52.57     0.185 A 
HETATM   17  C37   D T2601     233.611 193.698 216.647  1.00 58.30     0.125 A 
HETATM   18  N35   D T2601     233.861 194.281 214.830  1.00 56.79    -0.129 NA
HETATM   19  N38   D T2601     232.219 192.751 213.584  1.00 60.89    -0.223 NA
HETATM   20  N36   D T2601     234.317 194.555 216.029  1.00 62.69    -0.145 NA
HETATM   21  C39   D T2601     231.321 191.743 213.896  1.00 53.90     0.109 A 
ENDBRANCH  12  13
ENDBRANCH   6  11
ENDBRANCH   2   4
BRANCH   1  22
HETATM   22  C11   D T2601     228.033 182.389 218.682  1.00 54.10     0.085 A 
HETATM   23  C12   D T2601     228.126 181.193 217.974  1.00 44.78     0.023 A 
HETATM   24  C13   D T2601     228.593 180.002 218.573  1.00 45.32     0.071 A 
HETATM   25  C14   D T2601     228.994 180.037 219.944  1.00 49.02     0.015 A 
HETATM   26  C15   D T2601     228.893 181.248 220.629  1.00 60.33    -0.001 A 
HETATM   27  C16   D T2601     228.419 182.414 220.012  1.00 55.57     0.019 A 
BRANCH  24  28
HETATM   28  C25   D T2601     228.666 178.728 217.721  1.00 59.37     0.419 C 
HETATM   29  F26   D T2601     228.360 177.628 218.465  1.00 68.99    -0.166 F 
HETATM   30  F27   D T2601     227.777 178.833 216.695  1.00 54.12    -0.166 F 
HETATM   31  F28   D T2601     229.924 178.595 217.208  1.00 77.73    -0.166 F 
ENDBRANCH  24  28
BRANCH  25  32
HETATM   32  C17   D T2601     229.535 178.768 220.698  1.00 46.42     0.277 C 
BRANCH  32  33
HETATM   33  N18   D T2601     230.747 179.050 221.180  1.00 63.20     0.146 N 
HETATM   34  C19   D T2601     231.674 178.723 220.309  1.00 56.59     0.286 C 
HETATM   35  C20   D T2601     233.101 178.663 220.885  1.00 57.91     0.286 C 
HETATM   36  N21   D T2601     233.138 179.222 222.084  1.00 61.09     0.143 N 
HETATM   37  C22   D T2601     232.337 178.559 222.892  1.00 58.33     0.286 C 
HETATM   38  C24   D T2601     234.355 179.180 222.546  1.00 58.82     0.285 C 
HETATM   39  C23   D T2601     230.900 178.534 222.366  1.00 60.02     0.286 C 
ENDBRANCH  32  33
ENDBRANCH  25  32
ENDBRANCH   1  22
TORSDOF 7
ENDMDL
