MODEL 1
REMARK VINA RESULT:      -5.3      0.000      0.000
REMARK  7 active torsions:
REMARK  status: ('A' for Active; 'I' for Inactive)
REMARK    1  A    between atoms: C13_1  and  C25_21 
REMARK    2  A    between atoms: C17_3  and  C14_7 
REMARK    3  A    between atoms: C17_3  and  N18_33 
REMARK    4  A    between atoms: C11_5  and  N10_10 
REMARK       I    between atoms: N10_10  and  C08_17 
REMARK    5  A    between atoms: C03_12  and  C29_22 
REMARK    6  A    between atoms: C05_14  and  C08_17 
REMARK    7  A    between atoms: C30_23  and  C31_24 
ROOT
HETATM    1  N10   D T2602     167.187 161.885 146.345  1.00 94.57    -0.208 NA
HETATM    2  C08   D T2602     167.505 163.125 145.641  1.00 96.06     0.279 C 
HETATM    3  O09   D T2602     168.627 163.465 145.520  1.00 99.47    -0.265 OA
ENDROOT
BRANCH   1   4
HETATM    4  C11   D T2602     168.278 161.053 146.914  1.00 98.39     0.085 A 
HETATM    5  C12   D T2602     168.995 160.194 146.090  1.00102.66     0.023 A 
HETATM    6  C13   D T2602     170.041 159.387 146.582  1.00102.89     0.071 A 
HETATM    7  C14   D T2602     170.373 159.457 147.967  1.00103.19     0.015 A 
HETATM    8  C15   D T2602     169.642 160.330 148.775  1.00105.74    -0.001 A 
HETATM    9  C16   D T2602     168.603 161.122 148.260  1.00102.06     0.019 A 
BRANCH   6  10
HETATM   10  C25   D T2602     170.783 158.458 145.615  1.00102.82     0.419 C 
HETATM   11  F26   D T2602     170.206 158.557 144.387  1.00107.06    -0.166 F 
HETATM   12  F27   D T2602     172.088 158.831 145.514  1.00102.60    -0.166 F 
HETATM   13  F28   D T2602     170.697 157.167 146.044  1.00103.37    -0.166 F 
ENDBRANCH   6  10
BRANCH   7  14
HETATM   14  C17   D T2602     171.531 158.584 148.572  1.00100.67     0.277 C 
BRANCH  14  15
HETATM   15  N18   D T2602     171.156 158.052 149.733  1.00104.04     0.146 N 
HETATM   16  C19   D T2602     172.228 157.861 150.465  1.00107.77     0.286 C 
HETATM   17  C20   D T2602     172.160 156.691 151.459  1.00107.78     0.286 C 
HETATM   18  N21   D T2602     170.899 156.451 151.757  1.00106.92     0.143 N 
HETATM   19  C22   D T2602     170.304 156.001 150.675  1.00103.68     0.286 C 
HETATM   20  C24   D T2602     170.850 155.560 152.702  1.00105.81     0.285 C 
HETATM   21  C23   D T2602     170.418 156.998 149.518  1.00104.89     0.286 C 
ENDBRANCH  14  15
ENDBRANCH   7  14
ENDBRANCH   1   4
BRANCH   2  22
HETATM   22  C05   D T2602     166.376 164.004 145.056  1.00 96.97     0.059 A 
HETATM   23  C04   D T2602     166.531 165.382 145.042  1.00 99.17     0.013 A 
HETATM   24  C03   D T2602     165.532 166.183 144.527  1.00 96.89     0.042 A 
HETATM   25  C02   D T2602     164.371 165.610 144.029  1.00 99.79     0.008 A 
HETATM   26  C07   D T2602     164.217 164.234 144.047  1.00100.07     0.001 A 
HETATM   27  C06   D T2602     165.220 163.427 144.562  1.00100.96     0.005 A 
BRANCH  24  28
HETATM   28  C29   D T2602     165.702 167.708 144.505  1.00 99.16    -0.059 C 
HETATM   29  C30   D T2602     165.823 168.896 144.479  1.00101.30    -0.058 C 
BRANCH  29  30
HETATM   30  C31   D T2602     165.961 170.427 144.448  1.00 99.24     0.061 A 
HETATM   31  C32   D T2602     166.938 171.081 145.171  1.00 99.88     0.015 A 
HETATM   32  C33   D T2602     166.986 172.405 145.090  1.00 95.59     0.059 A 
HETATM   33  C34   D T2602     166.078 173.149 144.288  1.00 97.44     0.185 A 
HETATM   34  C37   D T2602     167.780 173.479 145.629  1.00101.07     0.125 A 
HETATM   35  N35   D T2602     166.550 174.469 144.545  1.00 99.25    -0.129 NA
HETATM   36  N38   D T2602     165.122 172.579 143.569  1.00 99.75    -0.223 NA
HETATM   37  N36   D T2602     167.563 174.698 145.340  1.00101.72    -0.145 NA
HETATM   38  C39   D T2602     165.059 171.199 143.646  1.00 98.74     0.109 A 
ENDBRANCH  29  30
ENDBRANCH  24  28
ENDBRANCH   2  22
TORSDOF 7
ENDMDL
MODEL 2
REMARK VINA RESULT:      -5.1      5.560     13.327
REMARK  7 active torsions:
REMARK  status: ('A' for Active; 'I' for Inactive)
REMARK    1  A    between atoms: C13_1  and  C25_21 
REMARK    2  A    between atoms: C17_3  and  C14_7 
REMARK    3  A    between atoms: C17_3  and  N18_33 
REMARK    4  A    between atoms: C11_5  and  N10_10 
REMARK       I    between atoms: N10_10  and  C08_17 
REMARK    5  A    between atoms: C03_12  and  C29_22 
REMARK    6  A    between atoms: C05_14  and  C08_17 
REMARK    7  A    between atoms: C30_23  and  C31_24 
ROOT
HETATM    1  N10   D T2602     171.125 159.711 148.479  1.00 94.57    -0.208 NA
HETATM    2  C08   D T2602     171.535 158.364 148.088  1.00 96.06     0.279 C 
HETATM    3  O09   D T2602     171.323 157.976 146.996  1.00 99.47    -0.265 OA
ENDROOT
BRANCH   1   4
HETATM    4  C11   D T2602     170.436 160.591 147.502  1.00 98.39     0.085 A 
HETATM    5  C12   D T2602     171.166 161.214 146.497  1.00102.66     0.023 A 
HETATM    6  C13   D T2602     170.556 162.056 145.544  1.00102.89     0.071 A 
HETATM    7  C14   D T2602     169.149 162.271 145.614  1.00103.19     0.015 A 
HETATM    8  C15   D T2602     168.436 161.632 146.630  1.00105.74    -0.001 A 
HETATM    9  C16   D T2602     169.067 160.800 147.568  1.00102.06     0.019 A 
BRANCH   6  10
HETATM   10  C25   D T2602     171.426 162.714 144.467  1.00102.82     0.419 C 
HETATM   11  F26   D T2602     172.734 162.561 144.809  1.00107.06    -0.166 F 
HETATM   12  F27   D T2602     171.218 162.113 143.264  1.00102.60    -0.166 F 
HETATM   13  F28   D T2602     171.142 164.044 144.382  1.00103.37    -0.166 F 
ENDBRANCH   6  10
BRANCH   7  14
HETATM   14  C17   D T2602     168.413 163.196 144.578  1.00100.67     0.277 C 
BRANCH  14  15
HETATM   15  N18   D T2602     167.467 162.516 143.935  1.00104.04     0.146 N 
HETATM   16  C19   D T2602     166.382 162.520 144.672  1.00107.77     0.286 C 
HETATM   17  C20   D T2602     165.461 161.300 144.514  1.00107.78     0.286 C 
HETATM   18  N21   D T2602     165.654 160.766 143.326  1.00106.92     0.143 N 
HETATM   19  C22   D T2602     166.870 160.269 143.295  1.00103.68     0.286 C 
HETATM   20  C24   D T2602     164.777 159.824 143.138  1.00105.81     0.285 C 
HETATM   21  C23   D T2602     167.921 161.342 143.595  1.00104.89     0.286 C 
ENDBRANCH  14  15
ENDBRANCH   7  14
ENDBRANCH   1   4
BRANCH   2  22
HETATM   22  C05   D T2602     172.243 157.437 149.102  1.00 96.97     0.059 A 
HETATM   23  C04   D T2602     171.611 157.139 150.300  1.00 99.17     0.013 A 
HETATM   24  C03   D T2602     172.228 156.315 151.219  1.00 96.89     0.042 A 
HETATM   25  C02   D T2602     173.483 155.792 150.948  1.00 99.79     0.008 A 
HETATM   26  C07   D T2602     174.114 156.093 149.753  1.00100.07     0.001 A 
HETATM   27  C06   D T2602     173.496 156.918 148.827  1.00100.96     0.005 A 
BRANCH  24  28
HETATM   28  C29   D T2602     171.530 155.979 152.543  1.00 99.16    -0.059 C 
HETATM   29  C30   D T2602     170.997 155.722 153.581  1.00101.30    -0.058 C 
BRANCH  29  30
HETATM   30  C31   D T2602     170.314 155.410 154.924  1.00 99.24     0.061 A 
HETATM   31  C32   D T2602     170.961 155.606 156.127  1.00 99.88     0.015 A 
HETATM   32  C33   D T2602     170.300 155.308 157.240  1.00 95.59     0.059 A 
HETATM   33  C34   D T2602     168.968 154.810 157.221  1.00 97.44     0.185 A 
HETATM   34  C37   D T2602     170.535 155.338 158.660  1.00101.07     0.125 A 
HETATM   35  N35   D T2602     168.741 154.667 158.620  1.00 99.25    -0.129 NA
HETATM   36  N38   D T2602     168.294 154.606 156.098  1.00 99.75    -0.223 NA
HETATM   37  N36   D T2602     169.656 154.973 159.504  1.00101.72    -0.145 NA
HETATM   38  C39   D T2602     168.971 154.909 154.931  1.00 98.74     0.109 A 
ENDBRANCH  29  30
ENDBRANCH  24  28
ENDBRANCH   2  22
TORSDOF 7
ENDMDL
MODEL 3
REMARK VINA RESULT:      -4.8      2.174      3.145
REMARK  7 active torsions:
REMARK  status: ('A' for Active; 'I' for Inactive)
REMARK    1  A    between atoms: C13_1  and  C25_21 
REMARK    2  A    between atoms: C17_3  and  C14_7 
REMARK    3  A    between atoms: C17_3  and  N18_33 
REMARK    4  A    between atoms: C11_5  and  N10_10 
REMARK       I    between atoms: N10_10  and  C08_17 
REMARK    5  A    between atoms: C03_12  and  C29_22 
REMARK    6  A    between atoms: C05_14  and  C08_17 
REMARK    7  A    between atoms: C30_23  and  C31_24 
ROOT
HETATM    1  N10   D T2602     167.781 163.634 143.388  1.00 94.57    -0.208 NA
HETATM    2  C08   D T2602     166.998 164.418 144.341  1.00 96.06     0.279 C 
HETATM    3  O09   D T2602     167.069 164.188 145.494  1.00 99.47    -0.265 OA
ENDROOT
BRANCH   1   4
HETATM    4  C11   D T2602     168.664 162.543 143.871  1.00 98.39     0.085 A 
HETATM    5  C12   D T2602     170.010 162.795 144.108  1.00102.66     0.023 A 
HETATM    6  C13   D T2602     170.888 161.793 144.571  1.00102.89     0.071 A 
HETATM    7  C14   D T2602     170.376 160.483 144.804  1.00103.19     0.015 A 
HETATM    8  C15   D T2602     169.020 160.254 144.564  1.00105.74    -0.001 A 
HETATM    9  C16   D T2602     168.168 161.269 144.101  1.00102.06     0.019 A 
BRANCH   6  10
HETATM   10  C25   D T2602     172.362 162.143 144.804  1.00102.82     0.419 C 
HETATM   11  F26   D T2602     173.131 161.305 144.059  1.00107.06    -0.166 F 
HETATM   12  F27   D T2602     172.608 163.423 144.412  1.00102.60    -0.166 F 
HETATM   13  F28   D T2602     172.679 161.986 146.120  1.00103.37    -0.166 F 
ENDBRANCH   6  10
BRANCH   7  14
HETATM   14  C17   D T2602     171.305 159.327 145.323  1.00100.67     0.277 C 
BRANCH  14  15
HETATM   15  N18   D T2602     170.773 158.747 146.396  1.00104.04     0.146 N 
HETATM   16  C19   D T2602     170.907 159.563 147.415  1.00107.77     0.286 C 
HETATM   17  C20   D T2602     171.028 158.896 148.794  1.00107.78     0.286 C 
HETATM   18  N21   D T2602     170.457 157.709 148.752  1.00106.92     0.143 N 
HETATM   19  C22   D T2602     171.165 156.945 147.951  1.00103.68     0.286 C 
HETATM   20  C24   D T2602     170.434 157.206 149.951  1.00105.81     0.285 C 
HETATM   21  C23   D T2602     171.278 157.555 146.551  1.00104.89     0.286 C 
ENDBRANCH  14  15
ENDBRANCH   7  14
ENDBRANCH   1   4
BRANCH   2  22
HETATM   22  C05   D T2602     166.067 165.548 143.845  1.00 96.97     0.059 A 
HETATM   23  C04   D T2602     166.280 166.843 144.293  1.00 99.17     0.013 A 
HETATM   24  C03   D T2602     165.457 167.865 143.864  1.00 96.89     0.042 A 
HETATM   25  C02   D T2602     164.413 167.595 142.992  1.00 99.79     0.008 A 
HETATM   26  C07   D T2602     164.200 166.301 142.548  1.00100.07     0.001 A 
HETATM   27  C06   D T2602     165.027 165.272 142.975  1.00100.96     0.005 A 
BRANCH  24  28
HETATM   28  C29   D T2602     165.693 169.300 144.352  1.00 99.16    -0.059 C 
HETATM   29  C30   D T2602     165.870 170.414 144.745  1.00101.30    -0.058 C 
BRANCH  29  30
HETATM   30  C31   D T2602     166.108 171.842 145.267  1.00 99.24     0.061 A 
HETATM   31  C32   D T2602     165.089 172.586 145.827  1.00 99.88     0.015 A 
HETATM   32  C33   D T2602     165.378 173.811 146.250  1.00 95.59     0.059 A 
HETATM   33  C34   D T2602     166.686 174.359 146.148  1.00 97.44     0.185 A 
HETATM   34  C37   D T2602     164.693 174.914 146.871  1.00101.07     0.125 A 
HETATM   35  N35   D T2602     166.459 175.641 146.726  1.00 99.25    -0.129 NA
HETATM   36  N38   D T2602     167.705 173.692 145.624  1.00 99.75    -0.223 NA
HETATM   37  N36   D T2602     165.281 176.002 147.166  1.00101.72    -0.145 NA
HETATM   38  C39   D T2602     167.417 172.415 145.177  1.00 98.74     0.109 A 
ENDBRANCH  29  30
ENDBRANCH  24  28
ENDBRANCH   2  22
TORSDOF 7
ENDMDL
MODEL 4
REMARK VINA RESULT:      -4.3      2.951      3.416
REMARK  7 active torsions:
REMARK  status: ('A' for Active; 'I' for Inactive)
REMARK    1  A    between atoms: C13_1  and  C25_21 
REMARK    2  A    between atoms: C17_3  and  C14_7 
REMARK    3  A    between atoms: C17_3  and  N18_33 
REMARK    4  A    between atoms: C11_5  and  N10_10 
REMARK       I    between atoms: N10_10  and  C08_17 
REMARK    5  A    between atoms: C03_12  and  C29_22 
REMARK    6  A    between atoms: C05_14  and  C08_17 
REMARK    7  A    between atoms: C30_23  and  C31_24 
ROOT
HETATM    1  N10   D T2602     167.851 162.619 144.259  1.00 94.57    -0.208 NA
HETATM    2  C08   D T2602     167.445 163.118 145.572  1.00 96.06     0.279 C 
HETATM    3  O09   D T2602     167.986 162.732 146.544  1.00 99.47    -0.265 OA
ENDROOT
BRANCH   1   4
HETATM    4  C11   D T2602     168.944 161.620 144.150  1.00 98.39     0.085 A 
HETATM    5  C12   D T2602     170.265 162.044 144.080  1.00102.66     0.023 A 
HETATM    6  C13   D T2602     171.338 161.134 143.979  1.00102.89     0.071 A 
HETATM    7  C14   D T2602     171.056 159.737 143.951  1.00103.19     0.015 A 
HETATM    8  C15   D T2602     169.721 159.334 144.027  1.00105.74    -0.001 A 
HETATM    9  C16   D T2602     168.672 160.261 144.125  1.00102.06     0.019 A 
BRANCH   6  10
HETATM   10  C25   D T2602     172.770 161.675 143.899  1.00102.82     0.419 C 
HETATM   11  F26   D T2602     172.716 163.018 143.687  1.00107.06    -0.166 F 
HETATM   12  F27   D T2602     173.425 161.444 145.068  1.00102.60    -0.166 F 
HETATM   13  F28   D T2602     173.436 161.089 142.864  1.00103.37    -0.166 F 
ENDBRANCH   6  10
BRANCH   7  14
HETATM   14  C17   D T2602     172.209 158.675 143.843  1.00100.67     0.277 C 
BRANCH  14  15
HETATM   15  N18   D T2602     172.028 157.697 144.728  1.00104.04     0.146 N 
HETATM   16  C19   D T2602     172.673 158.011 145.827  1.00107.77     0.286 C 
HETATM   17  C20   D T2602     173.187 156.827 146.661  1.00107.78     0.286 C 
HETATM   18  N21   D T2602     172.446 155.768 146.408  1.00106.92     0.143 N 
HETATM   19  C22   D T2602     172.658 155.410 145.162  1.00103.68     0.286 C 
HETATM   20  C24   D T2602     172.789 154.808 147.217  1.00105.81     0.285 C 
HETATM   21  C23   D T2602     172.340 156.551 144.191  1.00104.89     0.286 C 
ENDBRANCH  14  15
ENDBRANCH   7  14
ENDBRANCH   1   4
BRANCH   2  22
HETATM   22  C05   D T2602     166.301 164.150 145.696  1.00 96.97     0.059 A 
HETATM   23  C04   D T2602     166.495 165.435 145.214  1.00 99.17     0.013 A 
HETATM   24  C03   D T2602     165.486 166.371 145.319  1.00 96.89     0.042 A 
HETATM   25  C02   D T2602     164.281 166.028 145.912  1.00 99.79     0.008 A 
HETATM   26  C07   D T2602     164.089 164.745 146.395  1.00100.07     0.001 A 
HETATM   27  C06   D T2602     165.100 163.802 146.289  1.00100.96     0.005 A 
BRANCH  24  28
HETATM   28  C29   D T2602     165.696 167.793 144.782  1.00 99.16    -0.059 C 
HETATM   29  C30   D T2602     165.859 168.906 144.377  1.00101.30    -0.058 C 
BRANCH  29  30
HETATM   30  C31   D T2602     166.083 170.340 143.869  1.00 99.24     0.061 A 
HETATM   31  C32   D T2602     167.246 171.031 144.143  1.00 99.88     0.015 A 
HETATM   32  C33   D T2602     167.358 172.266 143.669  1.00 95.59     0.059 A 
HETATM   33  C34   D T2602     166.333 172.878 142.897  1.00 97.44     0.185 A 
HETATM   34  C37   D T2602     168.325 173.332 143.686  1.00101.07     0.125 A 
HETATM   35  N35   D T2602     166.936 174.144 142.648  1.00 99.25    -0.129 NA
HETATM   36  N38   D T2602     165.196 172.264 142.598  1.00 99.75    -0.223 NA
HETATM   37  N36   D T2602     168.124 174.445 143.106  1.00101.72    -0.145 NA
HETATM   38  C39   D T2602     165.065 170.977 143.088  1.00 98.74     0.109 A 
ENDBRANCH  29  30
ENDBRANCH  24  28
ENDBRANCH   2  22
TORSDOF 7
ENDMDL
MODEL 5
REMARK VINA RESULT:      -4.0     25.829     28.258
REMARK  7 active torsions:
REMARK  status: ('A' for Active; 'I' for Inactive)
REMARK    1  A    between atoms: C13_1  and  C25_21 
REMARK    2  A    between atoms: C17_3  and  C14_7 
REMARK    3  A    between atoms: C17_3  and  N18_33 
REMARK    4  A    between atoms: C11_5  and  N10_10 
REMARK       I    between atoms: N10_10  and  C08_17 
REMARK    5  A    between atoms: C03_12  and  C29_22 
REMARK    6  A    between atoms: C05_14  and  C08_17 
REMARK    7  A    between atoms: C30_23  and  C31_24 
ROOT
HETATM    1  N10   D T2602     187.709 176.390 165.101  1.00 94.57    -0.208 NA
HETATM    2  C08   D T2602     188.627 176.412 163.964  1.00 96.06     0.279 C 
HETATM    3  O09   D T2602     189.073 175.405 163.545  1.00 99.47    -0.265 OA
ENDROOT
BRANCH   1   4
HETATM    4  C11   D T2602     187.340 175.099 165.734  1.00 98.39     0.085 A 
HETATM    5  C12   D T2602     186.154 174.468 165.379  1.00102.66     0.023 A 
HETATM    6  C13   D T2602     185.762 173.239 165.949  1.00102.89     0.071 A 
HETATM    7  C14   D T2602     186.611 172.626 166.916  1.00103.19     0.015 A 
HETATM    8  C15   D T2602     187.799 173.276 167.254  1.00105.74    -0.001 A 
HETATM    9  C16   D T2602     188.165 174.500 166.673  1.00102.06     0.019 A 
BRANCH   6  10
HETATM   10  C25   D T2602     184.436 172.605 165.513  1.00102.82     0.419 C 
HETATM   11  F26   D T2602     183.945 173.306 164.456  1.00107.06    -0.166 F 
HETATM   12  F27   D T2602     184.637 171.316 165.126  1.00102.60    -0.166 F 
HETATM   13  F28   D T2602     183.535 172.652 166.535  1.00103.37    -0.166 F 
ENDBRANCH   6  10
BRANCH   7  14
HETATM   14  C17   D T2602     186.229 171.255 167.584  1.00100.67     0.277 C 
BRANCH  14  15
HETATM   15  N18   D T2602     187.225 170.382 167.459  1.00104.04     0.146 N 
HETATM   16  C19   D T2602     187.220 169.924 166.229  1.00107.77     0.286 C 
HETATM   17  C20   D T2602     187.753 168.494 166.046  1.00107.78     0.286 C 
HETATM   18  N21   D T2602     188.578 168.211 167.033  1.00106.92     0.143 N 
HETATM   19  C22   D T2602     187.882 168.165 168.146  1.00103.68     0.286 C 
HETATM   20  C24   D T2602     189.136 167.059 166.802  1.00105.81     0.285 C 
HETATM   21  C23   D T2602     187.147 169.484 168.401  1.00104.89     0.286 C 
ENDBRANCH  14  15
ENDBRANCH   7  14
ENDBRANCH   1   4
BRANCH   2  22
HETATM   22  C05   D T2602     189.025 177.753 163.306  1.00 96.97     0.059 A 
HETATM   23  C04   D T2602     188.591 178.029 162.019  1.00 99.17     0.013 A 
HETATM   24  C03   D T2602     188.939 179.220 161.414  1.00 96.89     0.042 A 
HETATM   25  C02   D T2602     189.729 180.136 162.091  1.00 99.79     0.008 A 
HETATM   26  C07   D T2602     190.165 179.857 163.375  1.00100.07     0.001 A 
HETATM   27  C06   D T2602     189.815 178.663 163.986  1.00100.96     0.005 A 
BRANCH  24  28
HETATM   28  C29   D T2602     188.455 179.531 159.992  1.00 99.16    -0.059 C 
HETATM   29  C30   D T2602     188.069 179.764 158.885  1.00101.30    -0.058 C 
BRANCH  29  30
HETATM   30  C31   D T2602     187.554 180.065 157.468  1.00 99.24     0.061 A 
HETATM   31  C32   D T2602     186.204 180.160 157.194  1.00 99.88     0.015 A 
HETATM   32  C33   D T2602     185.844 180.419 155.942  1.00 95.59     0.059 A 
HETATM   33  C34   D T2602     186.796 180.604 154.902  1.00 97.44     0.185 A 
HETATM   34  C37   D T2602     184.625 180.604 155.200  1.00101.07     0.125 A 
HETATM   35  N35   D T2602     185.917 180.850 153.807  1.00 99.25    -0.129 NA
HETATM   36  N38   D T2602     188.104 180.529 155.104  1.00 99.75    -0.223 NA
HETATM   37  N36   D T2602     184.617 180.856 153.953  1.00101.72    -0.145 NA
HETATM   38  C39   D T2602     188.493 180.256 156.403  1.00 98.74     0.109 A 
ENDBRANCH  29  30
ENDBRANCH  24  28
ENDBRANCH   2  22
TORSDOF 7
ENDMDL
MODEL 6
REMARK VINA RESULT:      -3.7     26.106     28.548
REMARK  7 active torsions:
REMARK  status: ('A' for Active; 'I' for Inactive)
REMARK    1  A    between atoms: C13_1  and  C25_21 
REMARK    2  A    between atoms: C17_3  and  C14_7 
REMARK    3  A    between atoms: C17_3  and  N18_33 
REMARK    4  A    between atoms: C11_5  and  N10_10 
REMARK       I    between atoms: N10_10  and  C08_17 
REMARK    5  A    between atoms: C03_12  and  C29_22 
REMARK    6  A    between atoms: C05_14  and  C08_17 
REMARK    7  A    between atoms: C30_23  and  C31_24 
ROOT
HETATM    1  N10   D T2602     189.422 174.261 165.758  1.00 94.57    -0.208 NA
HETATM    2  C08   D T2602     189.388 174.636 164.346  1.00 96.06     0.279 C 
HETATM    3  O09   D T2602     189.217 173.813 163.521  1.00 99.47    -0.265 OA
ENDROOT
BRANCH   1   4
HETATM    4  C11   D T2602     189.247 172.840 166.155  1.00 98.39     0.085 A 
HETATM    5  C12   D T2602     188.012 172.399 166.616  1.00102.66     0.023 A 
HETATM    6  C13   D T2602     187.795 171.060 167.001  1.00102.89     0.071 A 
HETATM    7  C14   D T2602     188.874 170.132 166.910  1.00103.19     0.015 A 
HETATM    8  C15   D T2602     190.103 170.598 166.440  1.00105.74    -0.001 A 
HETATM    9  C16   D T2602     190.294 171.937 166.065  1.00102.06     0.019 A 
BRANCH   6  10
HETATM   10  C25   D T2602     186.408 170.646 167.507  1.00102.82     0.419 C 
HETATM   11  F26   D T2602     186.522 170.230 168.797  1.00107.06    -0.166 F 
HETATM   12  F27   D T2602     185.557 171.706 167.464  1.00102.60    -0.166 F 
HETATM   13  F28   D T2602     185.920 169.621 166.752  1.00103.37    -0.166 F 
ENDBRANCH   6  10
BRANCH   7  14
HETATM   14  C17   D T2602     188.691 168.626 167.321  1.00100.67     0.277 C 
BRANCH  14  15
HETATM   15  N18   D T2602     189.100 167.822 166.343  1.00104.04     0.146 N 
HETATM   16  C19   D T2602     188.083 167.588 165.549  1.00107.77     0.286 C 
HETATM   17  C20   D T2602     188.097 166.231 164.827  1.00107.78     0.286 C 
HETATM   18  N21   D T2602     189.340 165.808 164.729  1.00106.92     0.143 N 
HETATM   19  C22   D T2602     189.777 165.543 165.939  1.00103.68     0.286 C 
HETATM   20  C24   D T2602     189.365 164.734 163.996  1.00105.81     0.285 C 
HETATM   21  C23   D T2602     189.682 166.771 166.849  1.00104.89     0.286 C 
ENDBRANCH  14  15
ENDBRANCH   7  14
ENDBRANCH   1   4
BRANCH   2  22
HETATM   22  C05   D T2602     189.582 176.110 163.924  1.00 96.97     0.059 A 
HETATM   23  C04   D T2602     189.218 176.499 162.644  1.00 99.17     0.013 A 
HETATM   24  C03   D T2602     189.387 177.810 162.248  1.00 96.89     0.042 A 
HETATM   25  C02   D T2602     189.927 178.736 163.127  1.00 99.79     0.008 A 
HETATM   26  C07   D T2602     190.293 178.345 164.404  1.00100.07     0.001 A 
HETATM   27  C06   D T2602     190.123 177.029 164.805  1.00100.96     0.005 A 
BRANCH  24  28
HETATM   28  C29   D T2602     188.980 178.246 160.834  1.00 99.16    -0.059 C 
HETATM   29  C30   D T2602     188.651 178.591 159.738  1.00101.30    -0.058 C 
BRANCH  29  30
HETATM   30  C31   D T2602     188.223 179.051 158.334  1.00 99.24     0.061 A 
HETATM   31  C32   D T2602     186.909 179.358 158.042  1.00 99.88     0.015 A 
HETATM   32  C33   D T2602     186.625 179.745 156.804  1.00 95.59     0.059 A 
HETATM   33  C34   D T2602     187.621 179.855 155.797  1.00 97.44     0.185 A 
HETATM   34  C37   D T2602     185.465 180.150 156.054  1.00101.07     0.125 A 
HETATM   35  N35   D T2602     186.818 180.293 154.705  1.00 99.25    -0.129 NA
HETATM   36  N38   D T2602     188.899 179.579 156.017  1.00 99.75    -0.223 NA
HETATM   37  N36   D T2602     185.528 180.478 154.827  1.00101.72    -0.145 NA
HETATM   38  C39   D T2602     189.210 179.172 157.302  1.00 98.74     0.109 A 
ENDBRANCH  29  30
ENDBRANCH  24  28
ENDBRANCH   2  22
TORSDOF 7
ENDMDL
MODEL 7
REMARK VINA RESULT:      -3.6      4.647     13.043
REMARK  7 active torsions:
REMARK  status: ('A' for Active; 'I' for Inactive)
REMARK    1  A    between atoms: C13_1  and  C25_21 
REMARK    2  A    between atoms: C17_3  and  C14_7 
REMARK    3  A    between atoms: C17_3  and  N18_33 
REMARK    4  A    between atoms: C11_5  and  N10_10 
REMARK       I    between atoms: N10_10  and  C08_17 
REMARK    5  A    between atoms: C03_12  and  C29_22 
REMARK    6  A    between atoms: C05_14  and  C08_17 
REMARK    7  A    between atoms: C30_23  and  C31_24 
ROOT
HETATM    1  N10   D T2602     170.769 159.450 148.490  1.00 94.57    -0.208 NA
HETATM    2  C08   D T2602     171.539 158.210 148.410  1.00 96.06     0.279 C 
HETATM    3  O09   D T2602     171.875 157.790 147.362  1.00 99.47    -0.265 OA
ENDROOT
BRANCH   1   4
HETATM    4  C11   D T2602     170.407 160.181 147.249  1.00 98.39     0.085 A 
HETATM    5  C12   D T2602     171.387 160.855 146.531  1.00102.66     0.023 A 
HETATM    6  C13   D T2602     171.093 161.560 145.345  1.00102.89     0.071 A 
HETATM    7  C14   D T2602     169.750 161.578 144.870  1.00103.19     0.015 A 
HETATM    8  C15   D T2602     168.782 160.891 145.605  1.00105.74    -0.001 A 
HETATM    9  C16   D T2602     169.101 160.198 146.784  1.00102.06     0.019 A 
BRANCH   6  10
HETATM   10  C25   D T2602     172.225 162.285 144.610  1.00102.82     0.419 C 
HETATM   11  F26   D T2602     172.066 163.625 144.780  1.00107.06    -0.166 F 
HETATM   12  F27   D T2602     173.430 161.920 145.126  1.00102.60    -0.166 F 
HETATM   13  F28   D T2602     172.179 161.998 143.278  1.00103.37    -0.166 F 
ENDBRANCH   6  10
BRANCH   7  14
HETATM   14  C17   D T2602     169.361 162.344 143.553  1.00100.67     0.277 C 
BRANCH  14  15
HETATM   15  N18   D T2602     168.328 163.153 143.771  1.00104.04     0.146 N 
HETATM   16  C19   D T2602     167.322 162.746 143.033  1.00107.77     0.286 C 
HETATM   17  C20   D T2602     166.339 163.838 142.583  1.00107.78     0.286 C 
HETATM   18  N21   D T2602     166.390 164.842 143.435  1.00106.92     0.143 N 
HETATM   19  C22   D T2602     167.574 165.402 143.334  1.00103.68     0.286 C 
HETATM   20  C24   D T2602     165.459 165.700 143.135  1.00105.81     0.285 C 
HETATM   21  C23   D T2602     168.695 164.393 143.602  1.00104.89     0.286 C 
ENDBRANCH  14  15
ENDBRANCH   7  14
ENDBRANCH   1   4
BRANCH   2  22
HETATM   22  C05   D T2602     171.911 157.437 149.696  1.00 96.97     0.059 A 
HETATM   23  C04   D T2602     172.811 158.001 150.586  1.00 99.17     0.013 A 
HETATM   24  C03   D T2602     173.158 157.324 151.738  1.00 96.89     0.042 A 
HETATM   25  C02   D T2602     172.611 156.077 152.001  1.00 99.79     0.008 A 
HETATM   26  C07   D T2602     171.714 155.514 151.109  1.00100.07     0.001 A 
HETATM   27  C06   D T2602     171.362 156.193 149.952  1.00100.96     0.005 A 
BRANCH  24  28
HETATM   28  C29   D T2602     174.150 157.947 152.729  1.00 99.16    -0.059 C 
HETATM   29  C30   D T2602     174.918 158.446 153.497  1.00101.30    -0.058 C 
BRANCH  29  30
HETATM   30  C31   D T2602     175.891 159.096 154.494  1.00 99.24     0.061 A 
HETATM   31  C32   D T2602     177.100 158.511 154.812  1.00 99.88     0.015 A 
HETATM   32  C33   D T2602     177.881 159.137 155.684  1.00 95.59     0.059 A 
HETATM   33  C34   D T2602     177.511 160.374 156.281  1.00 97.44     0.185 A 
HETATM   34  C37   D T2602     179.165 158.937 156.302  1.00101.07     0.125 A 
HETATM   35  N35   D T2602     178.655 160.603 157.099  1.00 99.25    -0.129 NA
HETATM   36  N38   D T2602     176.366 160.986 156.012  1.00 99.75    -0.223 NA
HETATM   37  N36   D T2602     179.658 159.763 157.133  1.00101.72    -0.145 NA
HETATM   38  C39   D T2602     175.542 160.343 155.107  1.00 98.74     0.109 A 
ENDBRANCH  29  30
ENDBRANCH  24  28
ENDBRANCH   2  22
TORSDOF 7
ENDMDL
MODEL 8
REMARK VINA RESULT:      -2.7      6.331     12.850
REMARK  7 active torsions:
REMARK  status: ('A' for Active; 'I' for Inactive)
REMARK    1  A    between atoms: C13_1  and  C25_21 
REMARK    2  A    between atoms: C17_3  and  C14_7 
REMARK    3  A    between atoms: C17_3  and  N18_33 
REMARK    4  A    between atoms: C11_5  and  N10_10 
REMARK       I    between atoms: N10_10  and  C08_17 
REMARK    5  A    between atoms: C03_12  and  C29_22 
REMARK    6  A    between atoms: C05_14  and  C08_17 
REMARK    7  A    between atoms: C30_23  and  C31_24 
ROOT
HETATM    1  N10   D T2602     170.615 159.015 148.320  1.00 94.57    -0.208 NA
HETATM    2  C08   D T2602     171.674 158.025 148.504  1.00 96.06     0.279 C 
HETATM    3  O09   D T2602     172.347 157.703 147.593  1.00 99.47    -0.265 OA
ENDROOT
BRANCH   1   4
HETATM    4  C11   D T2602     170.382 159.614 146.981  1.00 98.39     0.085 A 
HETATM    5  C12   D T2602     170.174 158.790 145.882  1.00102.66     0.023 A 
HETATM    6  C13   D T2602     169.945 159.311 144.591  1.00102.89     0.071 A 
HETATM    7  C14   D T2602     169.926 160.725 144.412  1.00103.19     0.015 A 
HETATM    8  C15   D T2602     170.133 161.533 145.532  1.00105.74    -0.001 A 
HETATM    9  C16   D T2602     170.360 160.989 146.806  1.00102.06     0.019 A 
BRANCH   6  10
HETATM   10  C25   D T2602     169.730 158.342 143.424  1.00102.82     0.419 C 
HETATM   11  F26   D T2602     169.343 157.137 143.924  1.00107.06    -0.166 F 
HETATM   12  F27   D T2602     168.751 158.807 142.602  1.00102.60    -0.166 F 
HETATM   13  F28   D T2602     170.891 158.181 142.727  1.00103.37    -0.166 F 
ENDBRANCH   6  10
BRANCH   7  14
HETATM   14  C17   D T2602     169.673 161.364 142.999  1.00100.67     0.277 C 
BRANCH  14  15
HETATM   15  N18   D T2602     170.747 162.036 142.591  1.00104.04     0.146 N 
HETATM   16  C19   D T2602     171.811 161.322 142.873  1.00107.77     0.286 C 
HETATM   17  C20   D T2602     173.096 162.119 143.149  1.00107.78     0.286 C 
HETATM   18  N21   D T2602     173.017 163.287 142.547  1.00106.92     0.143 N 
HETATM   19  C22   D T2602     172.066 163.982 143.129  1.00103.68     0.286 C 
HETATM   20  C24   D T2602     174.158 163.901 142.662  1.00105.81     0.285 C 
HETATM   21  C23   D T2602     170.725 163.244 143.081  1.00104.89     0.286 C 
ENDBRANCH  14  15
ENDBRANCH   7  14
ENDBRANCH   1   4
BRANCH   2  22
HETATM   22  C05   D T2602     171.915 157.387 149.892  1.00 96.97     0.059 A 
HETATM   23  C04   D T2602     172.876 157.935 150.728  1.00 99.17     0.013 A 
HETATM   24  C03   D T2602     173.108 157.377 151.970  1.00 96.89     0.042 A 
HETATM   25  C02   D T2602     172.385 156.266 152.377  1.00 99.79     0.008 A 
HETATM   26  C07   D T2602     171.428 155.719 151.539  1.00100.07     0.001 A 
HETATM   27  C06   D T2602     171.191 156.278 150.292  1.00100.96     0.005 A 
BRANCH  24  28
HETATM   28  C29   D T2602     174.167 157.983 152.900  1.00 99.16    -0.059 C 
HETATM   29  C30   D T2602     174.983 158.466 153.626  1.00101.30    -0.058 C 
BRANCH  29  30
HETATM   30  C31   D T2602     176.021 159.093 154.573  1.00 99.24     0.061 A 
HETATM   31  C32   D T2602     177.252 158.506 154.788  1.00 99.88     0.015 A 
HETATM   32  C33   D T2602     178.088 159.111 155.623  1.00 95.59     0.059 A 
HETATM   33  C34   D T2602     177.755 160.327 156.281  1.00 97.44     0.185 A 
HETATM   34  C37   D T2602     179.413 158.901 156.144  1.00101.07     0.125 A 
HETATM   35  N35   D T2602     178.952 160.538 157.025  1.00 99.25    -0.129 NA
HETATM   36  N38   D T2602     176.592 160.940 156.111  1.00 99.75    -0.223 NA
HETATM   37  N36   D T2602     179.959 159.705 156.965  1.00101.72    -0.145 NA
HETATM   38  C39   D T2602     175.710 160.319 155.246  1.00 98.74     0.109 A 
ENDBRANCH  29  30
ENDBRANCH  24  28
ENDBRANCH   2  22
TORSDOF 7
ENDMDL
