MODEL 1
REMARK VINA RESULT:    -7.946      0.000      0.000
REMARK INTER + INTRA:         -12.017
REMARK INTER:                 -11.197
REMARK INTRA:                  -0.820
REMARK UNBOUND:                -0.820
REMARK  7 active torsions:
REMARK  status: ('A' for Active; 'I' for Inactive)
REMARK    1  A    between atoms: C13_1  and  C25_21 
REMARK    2  A    between atoms: C17_3  and  C14_7 
REMARK    3  A    between atoms: C17_3  and  N18_33 
REMARK    4  A    between atoms: C11_5  and  N10_10 
REMARK       I    between atoms: N10_10  and  C08_17 
REMARK    5  A    between atoms: C03_12  and  C29_22 
REMARK    6  A    between atoms: C05_14  and  C08_17 
REMARK    7  A    between atoms: C30_23  and  C31_24 
ROOT
HETATM    1  N10   D T2602     176.867 160.143 152.527  1.00 94.57    -0.208 NA
HETATM    2  C08   D T2602     175.543 159.557 152.727  1.00 96.06     0.279 C 
HETATM    3  O09   D T2602     175.302 158.968 153.719  1.00 99.47    -0.265 OA
ENDROOT
BRANCH   1   4
HETATM    4  C11   D T2602     177.912 159.992 153.570  1.00 98.39     0.085 A 
HETATM    5  C12   D T2602     178.333 161.102 154.294  1.00102.66     0.023 A 
HETATM    6  C13   D T2602     179.319 161.009 155.297  1.00102.89     0.071 A 
HETATM    7  C14   D T2602     179.900 159.738 155.577  1.00103.19     0.015 A 
HETATM    8  C15   D T2602     179.459 158.637 154.841  1.00105.74    -0.001 A 
HETATM    9  C16   D T2602     178.477 158.756 153.845  1.00102.06     0.019 A 
BRANCH   6  10
HETATM   10  C25   D T2602     179.738 162.277 156.050  1.00102.82     0.419 C 
HETATM   11  F26   D T2602     179.048 163.333 155.542  1.00107.06    -0.166 F 
HETATM   12  F27   D T2602     179.439 162.157 157.372  1.00102.60    -0.166 F 
HETATM   13  F28   D T2602     181.073 162.499 155.889  1.00103.37    -0.166 F 
ENDBRANCH   6  10
BRANCH   7  14
HETATM   14  C17   D T2602     181.002 159.571 156.686  1.00100.67     0.277 C 
BRANCH  14  15
HETATM   15  N18   D T2602     180.764 158.487 157.421  1.00104.04     0.146 N 
HETATM   16  C19   D T2602     180.131 158.857 158.509  1.00107.77     0.286 C 
HETATM   17  C20   D T2602     180.370 157.984 159.751  1.00107.78     0.286 C 
HETATM   18  N21   D T2602     180.720 156.774 159.366  1.00106.92     0.143 N 
HETATM   19  C22   D T2602     181.898 156.855 158.788  1.00103.68     0.286 C 
HETATM   20  C24   D T2602     180.784 155.999 160.409  1.00105.81     0.285 C 
HETATM   21  C23   D T2602     181.873 157.826 157.603  1.00104.89     0.286 C 
ENDBRANCH  14  15
ENDBRANCH   7  14
ENDBRANCH   1   4
BRANCH   2  22
HETATM   22  C05   D T2602     174.453 159.699 151.641  1.00 96.97     0.059 A 
HETATM   23  C04   D T2602     173.518 158.687 151.487  1.00 99.17     0.013 A 
HETATM   24  C03   D T2602     172.538 158.795 150.520  1.00 96.89     0.042 A 
HETATM   25  C02   D T2602     172.494 159.911 149.699  1.00 99.79     0.008 A 
HETATM   26  C07   D T2602     173.430 160.919 149.853  1.00100.07     0.001 A 
HETATM   27  C06   D T2602     174.414 160.815 150.824  1.00100.96     0.005 A 
BRANCH  24  28
HETATM   28  C29   D T2602     171.499 157.679 150.350  1.00 99.16    -0.059 C 
HETATM   29  C30   D T2602     170.680 156.818 150.224  1.00101.30    -0.058 C 
BRANCH  29  30
HETATM   30  C31   D T2602     169.613 155.723 150.057  1.00 99.24     0.061 A 
HETATM   31  C32   D T2602     168.525 155.893 149.224  1.00 99.88     0.015 A 
HETATM   32  C33   D T2602     167.649 154.899 149.139  1.00 95.59     0.059 A 
HETATM   33  C34   D T2602     167.806 153.686 149.865  1.00 97.44     0.185 A 
HETATM   34  C37   D T2602     166.421 154.616 148.445  1.00101.07     0.125 A 
HETATM   35  N35   D T2602     166.643 152.988 149.429  1.00 99.25    -0.129 NA
HETATM   36  N38   D T2602     168.830 153.463 150.676  1.00 99.75    -0.223 NA
HETATM   37  N36   D T2602     165.798 153.517 148.582  1.00101.72    -0.145 NA
HETATM   38  C39   D T2602     169.750 154.491 150.777  1.00 98.74     0.109 A 
ENDBRANCH  29  30
ENDBRANCH  24  28
ENDBRANCH   2  22
TORSDOF 7
ENDMDL
MODEL 2
REMARK VINA RESULT:    -7.171      8.507     14.674
REMARK INTER + INTRA:         -10.925
REMARK INTER:                 -10.699
REMARK INTRA:                  -0.227
REMARK UNBOUND:                -0.820
REMARK  7 active torsions:
REMARK  status: ('A' for Active; 'I' for Inactive)
REMARK    1  A    between atoms: C13_1  and  C25_21 
REMARK    2  A    between atoms: C17_3  and  C14_7 
REMARK    3  A    between atoms: C17_3  and  N18_33 
REMARK    4  A    between atoms: C11_5  and  N10_10 
REMARK       I    between atoms: N10_10  and  C08_17 
REMARK    5  A    between atoms: C03_12  and  C29_22 
REMARK    6  A    between atoms: C05_14  and  C08_17 
REMARK    7  A    between atoms: C30_23  and  C31_24 
ROOT
HETATM    1  N10   D T2602     180.947 159.417 158.306  1.00 94.57    -0.208 NA
HETATM    2  C08   D T2602     181.641 158.201 157.888  1.00 96.06     0.279 C 
HETATM    3  O09   D T2602     182.210 158.170 156.856  1.00 99.47    -0.265 OA
ENDROOT
BRANCH   1   4
HETATM    4  C11   D T2602     180.953 160.615 157.429  1.00 98.39     0.085 A 
HETATM    5  C12   D T2602     180.059 160.701 156.369  1.00102.66     0.023 A 
HETATM    6  C13   D T2602     180.023 161.820 155.511  1.00102.89     0.071 A 
HETATM    7  C14   D T2602     180.932 162.894 155.741  1.00103.19     0.015 A 
HETATM    8  C15   D T2602     181.818 162.787 156.814  1.00105.74    -0.001 A 
HETATM    9  C16   D T2602     181.834 161.662 157.653  1.00102.06     0.019 A 
BRANCH   6  10
HETATM   10  C25   D T2602     179.014 161.843 154.358  1.00102.82     0.419 C 
HETATM   11  F26   D T2602     179.628 162.343 153.251  1.00107.06    -0.166 F 
HETATM   12  F27   D T2602     178.585 160.581 154.085  1.00102.60    -0.166 F 
HETATM   13  F28   D T2602     177.955 162.640 154.677  1.00103.37    -0.166 F 
ENDBRANCH   6  10
BRANCH   7  14
HETATM   14  C17   D T2602     180.938 164.168 154.820  1.00100.67     0.277 C 
BRANCH  14  15
HETATM   15  N18   D T2602     180.246 165.155 155.384  1.00104.04     0.146 N 
HETATM   16  C19   D T2602     179.947 166.032 154.456  1.00107.77     0.286 C 
HETATM   17  C20   D T2602     179.804 167.487 154.931  1.00107.78     0.286 C 
HETATM   18  N21   D T2602     179.489 167.493 156.210  1.00106.92     0.143 N 
HETATM   19  C22   D T2602     180.515 167.024 156.885  1.00103.68     0.286 C 
HETATM   20  C24   D T2602     179.230 168.714 156.577  1.00105.81     0.285 C 
HETATM   21  C23   D T2602     180.895 165.616 156.417  1.00104.89     0.286 C 
ENDBRANCH  14  15
ENDBRANCH   7  14
ENDBRANCH   1   4
BRANCH   2  22
HETATM   22  C05   D T2602     181.630 156.945 158.789  1.00 96.97     0.059 A 
HETATM   23  C04   D T2602     182.807 156.542 159.400  1.00 99.17     0.013 A 
HETATM   24  C03   D T2602     182.818 155.421 160.205  1.00 96.89     0.042 A 
HETATM   25  C02   D T2602     181.653 154.695 160.397  1.00 99.79     0.008 A 
HETATM   26  C07   D T2602     180.478 155.097 159.784  1.00100.07     0.001 A 
HETATM   27  C06   D T2602     180.464 156.224 158.976  1.00100.96     0.005 A 
BRANCH  24  28
HETATM   28  C29   D T2602     184.118 154.975 160.887  1.00 99.16    -0.059 C 
HETATM   29  C30   D T2602     185.129 154.615 161.412  1.00101.30    -0.058 C 
BRANCH  29  30
HETATM   30  C31   D T2602     186.438 154.147 162.069  1.00 99.24     0.061 A 
HETATM   31  C32   D T2602     186.646 154.261 163.429  1.00 99.88     0.015 A 
HETATM   32  C33   D T2602     187.806 153.835 163.916  1.00 95.59     0.059 A 
HETATM   33  C34   D T2602     188.814 153.270 163.088  1.00 97.44     0.185 A 
HETATM   34  C37   D T2602     188.457 153.747 165.196  1.00101.07     0.125 A 
HETATM   35  N35   D T2602     189.807 152.988 164.069  1.00 99.25    -0.129 NA
HETATM   36  N38   D T2602     188.671 153.130 161.777  1.00 99.75    -0.223 NA
HETATM   37  N36   D T2602     189.624 153.262 165.335  1.00101.72    -0.145 NA
HETATM   38  C39   D T2602     187.468 153.572 161.256  1.00 98.74     0.109 A 
ENDBRANCH  29  30
ENDBRANCH  24  28
ENDBRANCH   2  22
TORSDOF 7
ENDMDL
MODEL 3
REMARK VINA RESULT:    -7.041      9.109     14.568
REMARK INTER + INTRA:         -10.742
REMARK INTER:                 -10.874
REMARK INTRA:                   0.132
REMARK UNBOUND:                -0.820
REMARK  7 active torsions:
REMARK  status: ('A' for Active; 'I' for Inactive)
REMARK    1  A    between atoms: C13_1  and  C25_21 
REMARK    2  A    between atoms: C17_3  and  C14_7 
REMARK    3  A    between atoms: C17_3  and  N18_33 
REMARK    4  A    between atoms: C11_5  and  N10_10 
REMARK       I    between atoms: N10_10  and  C08_17 
REMARK    5  A    between atoms: C03_12  and  C29_22 
REMARK    6  A    between atoms: C05_14  and  C08_17 
REMARK    7  A    between atoms: C30_23  and  C31_24 
ROOT
HETATM    1  N10   D T2602     180.744 159.454 158.230  1.00 94.57    -0.208 NA
HETATM    2  C08   D T2602     181.473 158.257 157.819  1.00 96.06     0.279 C 
HETATM    3  O09   D T2602     182.071 158.249 156.803  1.00 99.47    -0.265 OA
ENDROOT
BRANCH   1   4
HETATM    4  C11   D T2602     180.750 160.662 157.367  1.00 98.39     0.085 A 
HETATM    5  C12   D T2602     181.900 161.436 157.269  1.00102.66     0.023 A 
HETATM    6  C13   D T2602     181.956 162.590 156.460  1.00102.89     0.071 A 
HETATM    7  C14   D T2602     180.799 162.970 155.719  1.00103.19     0.015 A 
HETATM    8  C15   D T2602     179.657 162.174 155.829  1.00105.74    -0.001 A 
HETATM    9  C16   D T2602     179.626 161.031 156.644  1.00102.06     0.019 A 
BRANCH   6  10
HETATM   10  C25   D T2602     183.257 163.399 156.406  1.00102.82     0.419 C 
HETATM   11  F26   D T2602     183.093 164.536 157.136  1.00107.06    -0.166 F 
HETATM   12  F27   D T2602     184.279 162.680 156.943  1.00102.60    -0.166 F 
HETATM   13  F28   D T2602     183.547 163.737 155.118  1.00103.37    -0.166 F 
ENDBRANCH   6  10
BRANCH   7  14
HETATM   14  C17   D T2602     180.803 164.243 154.797  1.00100.67     0.277 C 
BRANCH  14  15
HETATM   15  N18   D T2602     180.131 165.237 155.372  1.00104.04     0.146 N 
HETATM   16  C19   D T2602     179.958 166.187 154.483  1.00107.77     0.286 C 
HETATM   17  C20   D T2602     179.868 167.616 155.040  1.00107.78     0.286 C 
HETATM   18  N21   D T2602     179.457 167.566 156.290  1.00106.92     0.143 N 
HETATM   19  C22   D T2602     180.397 166.991 157.006  1.00103.68     0.286 C 
HETATM   20  C24   D T2602     179.245 168.777 156.715  1.00105.81     0.285 C 
HETATM   21  C23   D T2602     180.726 165.592 156.477  1.00104.89     0.286 C 
ENDBRANCH  14  15
ENDBRANCH   7  14
ENDBRANCH   1   4
BRANCH   2  22
HETATM   22  C05   D T2602     181.463 156.991 158.706  1.00 96.97     0.059 A 
HETATM   23  C04   D T2602     182.648 156.561 159.283  1.00 99.17     0.013 A 
HETATM   24  C03   D T2602     182.658 155.431 160.076  1.00 96.89     0.042 A 
HETATM   25  C02   D T2602     181.486 154.722 160.288  1.00 99.79     0.008 A 
HETATM   26  C07   D T2602     180.304 155.151 159.709  1.00100.07     0.001 A 
HETATM   27  C06   D T2602     180.289 156.287 158.914  1.00100.96     0.005 A 
BRANCH  24  28
HETATM   28  C29   D T2602     183.967 154.955 160.721  1.00 99.16    -0.059 C 
HETATM   29  C30   D T2602     184.983 154.593 161.234  1.00101.30    -0.058 C 
BRANCH  29  30
HETATM   30  C31   D T2602     186.282 154.124 161.910  1.00 99.24     0.061 A 
HETATM   31  C32   D T2602     186.514 154.334 163.255  1.00 99.88     0.015 A 
HETATM   32  C33   D T2602     187.663 153.901 163.759  1.00 95.59     0.059 A 
HETATM   33  C34   D T2602     188.636 153.233 162.966  1.00 97.44     0.185 A 
HETATM   34  C37   D T2602     188.329 153.885 165.035  1.00101.07     0.125 A 
HETATM   35  N35   D T2602     189.632 152.988 163.954  1.00 99.25    -0.129 NA
HETATM   36  N38   D T2602     188.469 152.999 161.672  1.00 99.75    -0.223 NA
HETATM   37  N36   D T2602     189.478 153.365 165.198  1.00101.72    -0.145 NA
HETATM   38  C39   D T2602     187.277 153.448 161.132  1.00 98.74     0.109 A 
ENDBRANCH  29  30
ENDBRANCH  24  28
ENDBRANCH   2  22
TORSDOF 7
ENDMDL
MODEL 4
REMARK VINA RESULT:    -6.946      3.085     12.324
REMARK INTER + INTRA:         -10.608
REMARK INTER:                 -10.136
REMARK INTRA:                  -0.472
REMARK UNBOUND:                -0.820
REMARK  7 active torsions:
REMARK  status: ('A' for Active; 'I' for Inactive)
REMARK    1  A    between atoms: C13_1  and  C25_21 
REMARK    2  A    between atoms: C17_3  and  C14_7 
REMARK    3  A    between atoms: C17_3  and  N18_33 
REMARK    4  A    between atoms: C11_5  and  N10_10 
REMARK       I    between atoms: N10_10  and  C08_17 
REMARK    5  A    between atoms: C03_12  and  C29_22 
REMARK    6  A    between atoms: C05_14  and  C08_17 
REMARK    7  A    between atoms: C30_23  and  C31_24 
ROOT
HETATM    1  N10   D T2602     176.180 159.383 154.064  1.00 94.57    -0.208 NA
HETATM    2  C08   D T2602     177.491 159.972 153.797  1.00 96.06     0.279 C 
HETATM    3  O09   D T2602     177.829 160.182 152.688  1.00 99.47    -0.265 OA
ENDROOT
BRANCH   1   4
HETATM    4  C11   D T2602     175.274 159.044 152.937  1.00 98.39     0.085 A 
HETATM    5  C12   D T2602     174.712 160.059 152.173  1.00102.66     0.023 A 
HETATM    6  C13   D T2602     173.849 159.788 151.091  1.00102.89     0.071 A 
HETATM    7  C14   D T2602     173.547 158.432 150.772  1.00103.19     0.015 A 
HETATM    8  C15   D T2602     174.128 157.429 151.551  1.00105.74    -0.001 A 
HETATM    9  C16   D T2602     174.982 157.726 152.625  1.00102.06     0.019 A 
BRANCH   6  10
HETATM   10  C25   D T2602     173.260 160.959 150.296  1.00102.82     0.419 C 
HETATM   11  F26   D T2602     174.064 161.207 149.227  1.00107.06    -0.166 F 
HETATM   12  F27   D T2602     172.017 160.640 149.842  1.00102.60    -0.166 F 
HETATM   13  F28   D T2602     173.202 162.075 151.077  1.00103.37    -0.166 F 
ENDBRANCH   6  10
BRANCH   7  14
HETATM   14  C17   D T2602     172.595 158.067 149.576  1.00100.67     0.277 C 
BRANCH  14  15
HETATM   15  N18   D T2602     171.853 157.005 149.877  1.00104.04     0.146 N 
HETATM   16  C19   D T2602     171.886 156.177 148.859  1.00107.77     0.286 C 
HETATM   17  C20   D T2602     170.638 155.299 148.672  1.00107.78     0.286 C 
HETATM   18  N21   D T2602     170.027 155.164 149.831  1.00106.92     0.143 N 
HETATM   19  C22   D T2602     169.555 156.340 150.181  1.00103.68     0.286 C 
HETATM   20  C24   D T2602     169.056 154.309 149.701  1.00105.81     0.285 C 
HETATM   21  C23   D T2602     170.668 157.388 150.262  1.00104.89     0.286 C 
ENDBRANCH  14  15
ENDBRANCH   7  14
ENDBRANCH   1   4
BRANCH   2  22
HETATM   22  C05   D T2602     178.445 160.316 154.963  1.00 96.97     0.059 A 
HETATM   23  C04   D T2602     178.908 159.297 155.781  1.00 99.17     0.013 A 
HETATM   24  C03   D T2602     179.758 159.586 156.829  1.00 96.89     0.042 A 
HETATM   25  C02   D T2602     180.143 160.896 157.068  1.00 99.79     0.008 A 
HETATM   26  C07   D T2602     179.678 161.913 156.252  1.00100.07     0.001 A 
HETATM   27  C06   D T2602     178.826 161.626 155.197  1.00100.96     0.005 A 
BRANCH  24  28
HETATM   28  C29   D T2602     180.276 158.460 157.733  1.00 99.16    -0.059 C 
HETATM   29  C30   D T2602     180.666 157.580 158.442  1.00101.30    -0.058 C 
BRANCH  29  30
HETATM   30  C31   D T2602     181.155 156.436 159.346  1.00 99.24     0.061 A 
HETATM   31  C32   D T2602     182.444 155.949 159.263  1.00 99.88     0.015 A 
HETATM   32  C33   D T2602     182.784 154.958 160.079  1.00 95.59     0.059 A 
HETATM   33  C34   D T2602     181.874 154.404 161.020  1.00 97.44     0.185 A 
HETATM   34  C37   D T2602     183.947 154.156 160.356  1.00101.07     0.125 A 
HETATM   35  N35   D T2602     182.710 153.418 161.619  1.00 99.25    -0.129 NA
HETATM   36  N38   D T2602     180.626 154.833 161.149  1.00 99.75    -0.223 NA
HETATM   37  N36   D T2602     183.952 153.246 161.244  1.00101.72    -0.145 NA
HETATM   38  C39   D T2602     180.257 155.863 160.304  1.00 98.74     0.109 A 
ENDBRANCH  29  30
ENDBRANCH  24  28
ENDBRANCH   2  22
TORSDOF 7
ENDMDL
MODEL 5
REMARK VINA RESULT:    -6.641      2.420      4.162
REMARK INTER + INTRA:         -10.179
REMARK INTER:                 -10.910
REMARK INTRA:                   0.731
REMARK UNBOUND:                -0.820
REMARK  7 active torsions:
REMARK  status: ('A' for Active; 'I' for Inactive)
REMARK    1  A    between atoms: C13_1  and  C25_21 
REMARK    2  A    between atoms: C17_3  and  C14_7 
REMARK    3  A    between atoms: C17_3  and  N18_33 
REMARK    4  A    between atoms: C11_5  and  N10_10 
REMARK       I    between atoms: N10_10  and  C08_17 
REMARK    5  A    between atoms: C03_12  and  C29_22 
REMARK    6  A    between atoms: C05_14  and  C08_17 
REMARK    7  A    between atoms: C30_23  and  C31_24 
ROOT
HETATM    1  N10   D T2602     179.571 159.710 155.186  1.00 94.57    -0.208 NA
HETATM    2  C08   D T2602     178.523 160.699 154.946  1.00 96.06     0.279 C 
HETATM    3  O09   D T2602     178.092 161.333 155.841  1.00 99.47    -0.265 OA
ENDROOT
BRANCH   1   4
HETATM    4  C11   D T2602     180.091 159.497 156.561  1.00 98.39     0.085 A 
HETATM    5  C12   D T2602     181.185 160.228 157.008  1.00102.66     0.023 A 
HETATM    6  C13   D T2602     181.713 160.064 158.305  1.00102.89     0.071 A 
HETATM    7  C14   D T2602     181.103 159.122 159.184  1.00103.19     0.015 A 
HETATM    8  C15   D T2602     180.002 158.403 158.715  1.00105.74    -0.001 A 
HETATM    9  C16   D T2602     179.497 158.583 157.418  1.00102.06     0.019 A 
BRANCH   6  10
HETATM   10  C25   D T2602     182.927 160.900 158.727  1.00102.82     0.419 C 
HETATM   11  F26   D T2602     183.007 161.990 157.916  1.00107.06    -0.166 F 
HETATM   12  F27   D T2602     182.782 161.323 160.012  1.00102.60    -0.166 F 
HETATM   13  F28   D T2602     184.069 160.167 158.599  1.00103.37    -0.166 F 
ENDBRANCH   6  10
BRANCH   7  14
HETATM   14  C17   D T2602     181.644 158.899 160.642  1.00100.67     0.277 C 
BRANCH  14  15
HETATM   15  N18   D T2602     181.847 157.603 160.871  1.00104.04     0.146 N 
HETATM   16  C19   D T2602     182.993 157.263 160.329  1.00107.77     0.286 C 
HETATM   17  C20   D T2602     183.101 155.805 159.857  1.00107.78     0.286 C 
HETATM   18  N21   D T2602     182.257 155.064 160.545  1.00106.92     0.143 N 
HETATM   19  C22   D T2602     181.037 155.427 160.220  1.00103.68     0.286 C 
HETATM   20  C24   D T2602     182.450 153.813 160.247  1.00105.81     0.285 C 
HETATM   21  C23   D T2602     180.808 156.918 160.485  1.00104.89     0.286 C 
ENDBRANCH  14  15
ENDBRANCH   7  14
ENDBRANCH   1   4
BRANCH   2  22
HETATM   22  C05   D T2602     177.968 160.919 153.520  1.00 96.97     0.059 A 
HETATM   23  C04   D T2602     176.805 160.267 153.141  1.00 99.17     0.013 A 
HETATM   24  C03   D T2602     176.295 160.448 151.871  1.00 96.89     0.042 A 
HETATM   25  C02   D T2602     176.951 161.276 150.973  1.00 99.79     0.008 A 
HETATM   26  C07   D T2602     178.114 161.924 151.352  1.00100.07     0.001 A 
HETATM   27  C06   D T2602     178.627 161.746 152.628  1.00100.96     0.005 A 
BRANCH  24  28
HETATM   28  C29   D T2602     175.005 159.733 151.449  1.00 99.16    -0.059 C 
HETATM   29  C30   D T2602     173.996 159.175 151.134  1.00101.30    -0.058 C 
BRANCH  29  30
HETATM   30  C31   D T2602     172.688 158.469 150.739  1.00 99.24     0.061 A 
HETATM   31  C32   D T2602     172.470 157.136 151.026  1.00 99.88     0.015 A 
HETATM   32  C33   D T2602     171.314 156.603 150.648  1.00 95.59     0.059 A 
HETATM   33  C34   D T2602     170.315 157.359 149.975  1.00 97.44     0.185 A 
HETATM   34  C37   D T2602     170.656 155.325 150.716  1.00101.07     0.125 A 
HETATM   35  N35   D T2602     169.319 156.354 149.809  1.00 99.25    -0.129 NA
HETATM   36  N38   D T2602     170.465 158.642 149.676  1.00 99.75    -0.223 NA
HETATM   37  N36   D T2602     169.493 155.131 150.240  1.00101.72    -0.145 NA
HETATM   38  C39   D T2602     171.666 159.209 150.062  1.00 98.74     0.109 A 
ENDBRANCH  29  30
ENDBRANCH  24  28
ENDBRANCH   2  22
TORSDOF 7
ENDMDL
MODEL 6
REMARK VINA RESULT:    -6.590      3.982     12.660
REMARK INTER + INTRA:         -10.107
REMARK INTER:                  -9.838
REMARK INTRA:                  -0.269
REMARK UNBOUND:                -0.820
REMARK  7 active torsions:
REMARK  status: ('A' for Active; 'I' for Inactive)
REMARK    1  A    between atoms: C13_1  and  C25_21 
REMARK    2  A    between atoms: C17_3  and  C14_7 
REMARK    3  A    between atoms: C17_3  and  N18_33 
REMARK    4  A    between atoms: C11_5  and  N10_10 
REMARK       I    between atoms: N10_10  and  C08_17 
REMARK    5  A    between atoms: C03_12  and  C29_22 
REMARK    6  A    between atoms: C05_14  and  C08_17 
REMARK    7  A    between atoms: C30_23  and  C31_24 
ROOT
HETATM    1  N10   D T2602     174.564 157.810 152.158  1.00 94.57    -0.208 NA
HETATM    2  C08   D T2602     174.834 159.246 152.182  1.00 96.06     0.279 C 
HETATM    3  O09   D T2602     174.005 160.009 151.836  1.00 99.47    -0.265 OA
ENDROOT
BRANCH   1   4
HETATM    4  C11   D T2602     173.246 157.309 151.694  1.00 98.39     0.085 A 
HETATM    5  C12   D T2602     172.559 156.367 152.450  1.00102.66     0.023 A 
HETATM    6  C13   D T2602     171.303 155.863 152.053  1.00102.89     0.071 A 
HETATM    7  C14   D T2602     170.721 156.338 150.842  1.00103.19     0.015 A 
HETATM    8  C15   D T2602     171.427 157.288 150.101  1.00105.74    -0.001 A 
HETATM    9  C16   D T2602     172.677 157.771 150.517  1.00102.06     0.019 A 
BRANCH   6  10
HETATM   10  C25   D T2602     170.606 154.820 152.934  1.00102.82     0.419 C 
HETATM   11  F26   D T2602     169.676 155.450 153.702  1.00107.06    -0.166 F 
HETATM   12  F27   D T2602     169.978 153.895 152.159  1.00102.60    -0.166 F 
HETATM   13  F28   D T2602     171.515 154.211 153.748  1.00103.37    -0.166 F 
ENDBRANCH   6  10
BRANCH   7  14
HETATM   14  C17   D T2602     169.322 155.817 150.350  1.00100.67     0.277 C 
BRANCH  14  15
HETATM   15  N18   D T2602     169.345 155.583 149.040  1.00104.04     0.146 N 
HETATM   16  C19   D T2602     168.121 155.695 148.579  1.00107.77     0.286 C 
HETATM   17  C20   D T2602     167.788 154.833 147.351  1.00107.78     0.286 C 
HETATM   18  N21   D T2602     168.900 154.568 146.696  1.00106.92     0.143 N 
HETATM   19  C22   D T2602     169.643 153.792 147.453  1.00103.68     0.286 C 
HETATM   20  C24   D T2602     168.602 153.962 145.585  1.00105.81     0.285 C 
HETATM   21  C23   D T2602     169.942 154.448 148.804  1.00104.89     0.286 C 
ENDBRANCH  14  15
ENDBRANCH   7  14
ENDBRANCH   1   4
BRANCH   2  22
HETATM   22  C05   D T2602     176.208 159.776 152.652  1.00 96.97     0.059 A 
HETATM   23  C04   D T2602     176.777 159.250 153.801  1.00 99.17     0.013 A 
HETATM   24  C03   D T2602     178.002 159.713 154.238  1.00 96.89     0.042 A 
HETATM   25  C02   D T2602     178.659 160.709 153.532  1.00 99.79     0.008 A 
HETATM   26  C07   D T2602     178.087 161.235 152.386  1.00100.07     0.001 A 
HETATM   27  C06   D T2602     176.858 160.771 151.943  1.00100.96     0.005 A 
BRANCH  24  28
HETATM   28  C29   D T2602     178.637 159.129 155.507  1.00 99.16    -0.059 C 
HETATM   29  C30   D T2602     179.120 158.668 156.498  1.00101.30    -0.058 C 
BRANCH  29  30
HETATM   30  C31   D T2602     179.735 158.058 157.769  1.00 99.24     0.061 A 
HETATM   31  C32   D T2602     179.978 156.703 157.876  1.00 99.88     0.015 A 
HETATM   32  C33   D T2602     180.509 156.258 159.009  1.00 95.59     0.059 A 
HETATM   33  C34   D T2602     180.831 157.126 160.088  1.00 97.44     0.185 A 
HETATM   34  C37   D T2602     180.924 154.999 159.569  1.00101.07     0.125 A 
HETATM   35  N35   D T2602     181.353 156.179 161.016  1.00 99.25    -0.129 NA
HETATM   36  N38   D T2602     180.625 158.434 160.042  1.00 99.75    -0.223 NA
HETATM   37  N36   D T2602     181.421 154.903 160.736  1.00101.72    -0.145 NA
HETATM   38  C39   D T2602     180.070 158.912 158.869  1.00 98.74     0.109 A 
ENDBRANCH  29  30
ENDBRANCH  24  28
ENDBRANCH   2  22
TORSDOF 7
ENDMDL
MODEL 7
REMARK VINA RESULT:    -5.883     20.594     23.394
REMARK INTER + INTRA:          -9.110
REMARK INTER:                  -8.183
REMARK INTRA:                  -0.927
REMARK UNBOUND:                -0.820
REMARK  7 active torsions:
REMARK  status: ('A' for Active; 'I' for Inactive)
REMARK    1  A    between atoms: C13_1  and  C25_21 
REMARK    2  A    between atoms: C17_3  and  C14_7 
REMARK    3  A    between atoms: C17_3  and  N18_33 
REMARK    4  A    between atoms: C11_5  and  N10_10 
REMARK       I    between atoms: N10_10  and  C08_17 
REMARK    5  A    between atoms: C03_12  and  C29_22 
REMARK    6  A    between atoms: C05_14  and  C08_17 
REMARK    7  A    between atoms: C30_23  and  C31_24 
ROOT
HETATM    1  N10   D T2602     189.268 169.898 167.477  1.00 94.57    -0.208 NA
HETATM    2  C08   D T2602     188.169 170.795 167.125  1.00 96.06     0.279 C 
HETATM    3  O09   D T2602     187.389 170.478 166.300  1.00 99.47    -0.265 OA
ENDROOT
BRANCH   1   4
HETATM    4  C11   D T2602     189.407 168.588 166.791  1.00 98.39     0.085 A 
HETATM    5  C12   D T2602     190.158 168.493 165.626  1.00102.66     0.023 A 
HETATM    6  C13   D T2602     190.323 167.271 164.941  1.00102.89     0.071 A 
HETATM    7  C14   D T2602     189.700 166.100 165.462  1.00103.19     0.015 A 
HETATM    8  C15   D T2602     188.954 166.218 166.636  1.00105.74    -0.001 A 
HETATM    9  C16   D T2602     188.804 167.447 167.298  1.00102.06     0.019 A 
BRANCH   6  10
HETATM   10  C25   D T2602     191.161 167.244 163.658  1.00102.82     0.419 C 
HETATM   11  F26   D T2602     191.592 168.506 163.392  1.00107.06    -0.166 F 
HETATM   12  F27   D T2602     192.245 166.439 163.823  1.00102.60    -0.166 F 
HETATM   13  F28   D T2602     190.404 166.803 162.613  1.00103.37    -0.166 F 
ENDBRANCH   6  10
BRANCH   7  14
HETATM   14  C17   D T2602     189.850 164.709 164.745  1.00100.67     0.277 C 
BRANCH  14  15
HETATM   15  N18   D T2602     190.343 163.802 165.584  1.00104.04     0.146 N 
HETATM   16  C19   D T2602     191.649 163.789 165.457  1.00107.77     0.286 C 
HETATM   17  C20   D T2602     192.336 162.446 165.748  1.00107.78     0.286 C 
HETATM   18  N21   D T2602     191.575 161.738 166.558  1.00106.92     0.143 N 
HETATM   19  C22   D T2602     190.479 161.415 165.908  1.00103.68     0.286 C 
HETATM   20  C24   D T2602     192.218 160.666 166.916  1.00105.81     0.285 C 
HETATM   21  C23   D T2602     189.742 162.659 165.403  1.00104.89     0.286 C 
ENDBRANCH  14  15
ENDBRANCH   7  14
ENDBRANCH   1   4
BRANCH   2  22
HETATM   22  C05   D T2602     188.023 172.165 167.825  1.00 96.97     0.059 A 
HETATM   23  C04   D T2602     186.839 172.873 167.685  1.00 99.17     0.013 A 
HETATM   24  C03   D T2602     186.692 174.099 168.300  1.00 96.89     0.042 A 
HETATM   25  C02   D T2602     187.730 174.627 169.051  1.00 99.79     0.008 A 
HETATM   26  C07   D T2602     188.913 173.921 169.188  1.00100.07     0.001 A 
HETATM   27  C06   D T2602     189.064 172.687 168.573  1.00100.96     0.005 A 
BRANCH  24  28
HETATM   28  C29   D T2602     185.381 174.883 168.151  1.00 99.16    -0.059 C 
HETATM   29  C30   D T2602     184.355 175.486 168.046  1.00101.30    -0.058 C 
BRANCH  29  30
HETATM   30  C31   D T2602     183.034 176.265 167.930  1.00 99.24     0.061 A 
HETATM   31  C32   D T2602     181.966 176.008 168.766  1.00 99.88     0.015 A 
HETATM   32  C33   D T2602     180.861 176.725 168.596  1.00 95.59     0.059 A 
HETATM   33  C34   D T2602     180.758 177.734 167.600  1.00 97.44     0.185 A 
HETATM   34  C37   D T2602     179.552 176.822 169.186  1.00101.07     0.125 A 
HETATM   35  N35   D T2602     179.425 178.178 167.840  1.00 99.25    -0.129 NA
HETATM   36  N38   D T2602     181.749 178.029 166.771  1.00 99.75    -0.223 NA
HETATM   37  N36   D T2602     178.681 177.653 168.779  1.00101.72    -0.145 NA
HETATM   38  C39   D T2602     182.906 177.288 166.935  1.00 98.74     0.109 A 
ENDBRANCH  29  30
ENDBRANCH  24  28
ENDBRANCH   2  22
TORSDOF 7
ENDMDL
MODEL 8
REMARK VINA RESULT:    -5.868     20.510     23.166
REMARK INTER + INTRA:          -9.089
REMARK INTER:                  -8.267
REMARK INTRA:                  -0.822
REMARK UNBOUND:                -0.820
REMARK  7 active torsions:
REMARK  status: ('A' for Active; 'I' for Inactive)
REMARK    1  A    between atoms: C13_1  and  C25_21 
REMARK    2  A    between atoms: C17_3  and  C14_7 
REMARK    3  A    between atoms: C17_3  and  N18_33 
REMARK    4  A    between atoms: C11_5  and  N10_10 
REMARK       I    between atoms: N10_10  and  C08_17 
REMARK    5  A    between atoms: C03_12  and  C29_22 
REMARK    6  A    between atoms: C05_14  and  C08_17 
REMARK    7  A    between atoms: C30_23  and  C31_24 
ROOT
HETATM    1  N10   D T2602     187.806 169.683 166.542  1.00 94.57    -0.208 NA
HETATM    2  C08   D T2602     188.727 170.780 166.832  1.00 96.06     0.279 C 
HETATM    3  O09   D T2602     189.831 170.549 167.174  1.00 99.47    -0.265 OA
ENDROOT
BRANCH   1   4
HETATM    4  C11   D T2602     188.257 168.276 166.683  1.00 98.39     0.085 A 
HETATM    5  C12   D T2602     188.848 167.627 165.606  1.00102.66     0.023 A 
HETATM    6  C13   D T2602     189.296 166.292 165.692  1.00102.89     0.071 A 
HETATM    7  C14   D T2602     189.139 165.591 166.923  1.00103.19     0.015 A 
HETATM    8  C15   D T2602     188.547 166.264 167.993  1.00105.74    -0.001 A 
HETATM    9  C16   D T2602     188.107 167.593 167.880  1.00102.06     0.019 A 
BRANCH   6  10
HETATM   10  C25   D T2602     189.932 165.639 164.460  1.00102.82     0.419 C 
HETATM   11  F26   D T2602     189.743 166.455 163.388  1.00107.06    -0.166 F 
HETATM   12  F27   D T2602     191.269 165.477 164.653  1.00102.60    -0.166 F 
HETATM   13  F28   D T2602     189.344 164.435 164.211  1.00103.37    -0.166 F 
ENDBRANCH   6  10
BRANCH   7  14
HETATM   14  C17   D T2602     189.622 164.104 167.081  1.00100.67     0.277 C 
BRANCH  14  15
HETATM   15  N18   D T2602     188.820 163.438 167.909  1.00104.04     0.146 N 
HETATM   16  C19   D T2602     189.563 162.835 168.807  1.00107.77     0.286 C 
HETATM   17  C20   D T2602     188.991 161.529 169.379  1.00107.78     0.286 C 
HETATM   18  N21   D T2602     187.679 161.545 169.265  1.00106.92     0.143 N 
HETATM   19  C22   D T2602     187.381 161.504 167.986  1.00103.68     0.286 C 
HETATM   20  C24   D T2602     187.187 160.508 169.876  1.00105.81     0.285 C 
HETATM   21  C23   D T2602     188.017 162.671 167.225  1.00104.89     0.286 C 
ENDBRANCH  14  15
ENDBRANCH   7  14
ENDBRANCH   1   4
BRANCH   2  22
HETATM   22  C05   D T2602     188.263 172.248 166.698  1.00 96.97     0.059 A 
HETATM   23  C04   D T2602     188.448 172.908 165.493  1.00 99.17     0.013 A 
HETATM   24  C03   D T2602     188.042 174.220 165.356  1.00 96.89     0.042 A 
HETATM   25  C02   D T2602     187.456 174.880 166.425  1.00 99.79     0.008 A 
HETATM   26  C07   D T2602     187.275 174.220 167.629  1.00100.07     0.001 A 
HETATM   27  C06   D T2602     187.680 172.902 167.769  1.00100.96     0.005 A 
BRANCH  24  28
HETATM   28  C29   D T2602     188.241 174.952 164.022  1.00 99.16    -0.059 C 
HETATM   29  C30   D T2602     188.383 175.529 162.985  1.00101.30    -0.058 C 
BRANCH  29  30
HETATM   30  C31   D T2602     188.562 176.288 161.660  1.00 99.24     0.061 A 
HETATM   31  C32   D T2602     188.685 175.623 160.456  1.00 99.88     0.015 A 
HETATM   32  C33   D T2602     188.840 176.354 159.359  1.00 95.59     0.059 A 
HETATM   33  C34   D T2602     188.874 177.775 159.393  1.00 97.44     0.185 A 
HETATM   34  C37   D T2602     189.001 176.135 157.945  1.00101.07     0.125 A 
HETATM   35  N35   D T2602     189.047 178.049 158.005  1.00 99.25    -0.129 NA
HETATM   36  N38   D T2602     188.758 178.469 160.516  1.00 99.75    -0.223 NA
HETATM   37  N36   D T2602     189.127 177.092 157.117  1.00101.72    -0.145 NA
HETATM   38  C39   D T2602     188.599 177.720 161.668  1.00 98.74     0.109 A 
ENDBRANCH  29  30
ENDBRANCH  24  28
ENDBRANCH   2  22
TORSDOF 7
ENDMDL
MODEL 9
REMARK VINA RESULT:    -5.175     20.794     23.488
REMARK INTER + INTRA:          -8.112
REMARK INTER:                  -7.235
REMARK INTRA:                  -0.877
REMARK UNBOUND:                -0.820
REMARK  7 active torsions:
REMARK  status: ('A' for Active; 'I' for Inactive)
REMARK    1  A    between atoms: C13_1  and  C25_21 
REMARK    2  A    between atoms: C17_3  and  C14_7 
REMARK    3  A    between atoms: C17_3  and  N18_33 
REMARK    4  A    between atoms: C11_5  and  N10_10 
REMARK       I    between atoms: N10_10  and  C08_17 
REMARK    5  A    between atoms: C03_12  and  C29_22 
REMARK    6  A    between atoms: C05_14  and  C08_17 
REMARK    7  A    between atoms: C30_23  and  C31_24 
ROOT
HETATM    1  N10   D T2602     187.981 170.710 166.445  1.00 94.57    -0.208 NA
HETATM    2  C08   D T2602     189.101 170.142 167.193  1.00 96.06     0.279 C 
HETATM    3  O09   D T2602     189.224 170.376 168.341  1.00 99.47    -0.265 OA
ENDROOT
BRANCH   1   4
HETATM    4  C11   D T2602     186.999 171.588 167.130  1.00 98.39     0.085 A 
HETATM    5  C12   D T2602     185.890 171.029 167.754  1.00102.66     0.023 A 
HETATM    6  C13   D T2602     184.931 171.821 168.420  1.00102.89     0.071 A 
HETATM    7  C14   D T2602     185.108 173.234 168.456  1.00103.19     0.015 A 
HETATM    8  C15   D T2602     186.232 173.772 167.826  1.00105.74    -0.001 A 
HETATM    9  C16   D T2602     187.171 172.963 167.167  1.00102.06     0.019 A 
BRANCH   6  10
HETATM   10  C25   D T2602     183.729 171.136 169.081  1.00102.82     0.419 C 
HETATM   11  F26   D T2602     183.942 169.792 169.085  1.00107.06    -0.166 F 
HETATM   12  F27   D T2602     183.596 171.560 170.367  1.00102.60    -0.166 F 
HETATM   13  F28   D T2602     182.592 171.404 168.378  1.00103.37    -0.166 F 
ENDBRANCH   6  10
BRANCH   7  14
HETATM   14  C17   D T2602     184.076 174.167 169.186  1.00100.67     0.277 C 
BRANCH  14  15
HETATM   15  N18   D T2602     183.724 175.181 168.398  1.00104.04     0.146 N 
HETATM   16  C19   D T2602     183.839 176.295 169.083  1.00107.77     0.286 C 
HETATM   17  C20   D T2602     182.883 177.428 168.680  1.00107.78     0.286 C 
HETATM   18  N21   D T2602     182.518 177.260 167.426  1.00106.92     0.143 N 
HETATM   19  C22   D T2602     181.786 176.170 167.357  1.00103.68     0.286 C 
HETATM   20  C24   D T2602     181.825 178.292 167.044  1.00105.81     0.285 C 
HETATM   21  C23   D T2602     182.551 174.950 167.878  1.00104.89     0.286 C 
ENDBRANCH  14  15
ENDBRANCH   7  14
ENDBRANCH   1   4
BRANCH   2  22
HETATM   22  C05   D T2602     190.135 169.236 166.485  1.00 96.97     0.059 A 
HETATM   23  C04   D T2602     189.999 167.859 166.573  1.00 99.17     0.013 A 
HETATM   24  C03   D T2602     190.914 167.035 165.950  1.00 96.89     0.042 A 
HETATM   25  C02   D T2602     191.973 167.584 165.244  1.00 99.79     0.008 A 
HETATM   26  C07   D T2602     192.109 168.959 165.160  1.00100.07     0.001 A 
HETATM   27  C06   D T2602     191.190 169.790 165.782  1.00100.96     0.005 A 
BRANCH  24  28
HETATM   28  C29   D T2602     190.764 165.510 166.041  1.00 99.16    -0.059 C 
HETATM   29  C30   D T2602     190.634 164.325 166.115  1.00101.30    -0.058 C 
BRANCH  29  30
HETATM   30  C31   D T2602     190.450 162.800 166.199  1.00 99.24     0.061 A 
HETATM   31  C32   D T2602     191.462 161.930 165.846  1.00 99.88     0.015 A 
HETATM   32  C33   D T2602     191.219 160.628 165.945  1.00 95.59     0.059 A 
HETATM   33  C34   D T2602     189.972 160.121 166.403  1.00 97.44     0.185 A 
HETATM   34  C37   D T2602     191.918 159.392 165.708  1.00101.07     0.125 A 
HETATM   35  N35   D T2602     190.233 158.723 166.325  1.00 99.25    -0.129 NA
HETATM   36  N38   D T2602     188.966 160.907 166.759  1.00 99.75    -0.223 NA
HETATM   37  N36   D T2602     191.384 158.257 165.914  1.00101.72    -0.145 NA
HETATM   38  C39   D T2602     189.203 162.266 166.658  1.00 98.74     0.109 A 
ENDBRANCH  29  30
ENDBRANCH  24  28
ENDBRANCH   2  22
TORSDOF 7
ENDMDL
