MODEL 1
REMARK VINA RESULT:      -7.8      0.000      0.000
REMARK  7 active torsions:
REMARK  status: ('A' for Active; 'I' for Inactive)
REMARK    1  A    between atoms: C13_1  and  C25_21 
REMARK    2  A    between atoms: C17_3  and  C14_7 
REMARK    3  A    between atoms: C17_3  and  N18_33 
REMARK    4  A    between atoms: C11_5  and  N10_10 
REMARK       I    between atoms: N10_10  and  C08_17 
REMARK    5  A    between atoms: C03_12  and  C29_22 
REMARK    6  A    between atoms: C05_14  and  C08_17 
REMARK    7  A    between atoms: C30_23  and  C31_24 
ROOT
HETATM    1  N10   D T2602     178.477 162.381 153.676  1.00 94.57    -0.208 NA
HETATM    2  C08   D T2602     178.799 162.008 152.300  1.00 96.06     0.279 C 
HETATM    3  O09   D T2602     179.863 161.575 152.038  1.00 99.47    -0.265 OA
ENDROOT
BRANCH   1   4
HETATM    4  C11   D T2602     179.494 162.221 154.746  1.00 98.39     0.085 A 
HETATM    5  C12   D T2602     180.354 163.270 155.046  1.00102.66     0.023 A 
HETATM    6  C13   D T2602     181.333 163.167 156.056  1.00102.89     0.071 A 
HETATM    7  C14   D T2602     181.440 161.951 156.791  1.00103.19     0.015 A 
HETATM    8  C15   D T2602     180.562 160.912 156.475  1.00105.74    -0.001 A 
HETATM    9  C16   D T2602     179.598 161.039 155.463  1.00102.06     0.019 A 
BRANCH   6  10
HETATM   10  C25   D T2602     182.252 164.364 156.327  1.00102.82     0.419 C 
HETATM   11  F26   D T2602     181.688 165.477 155.787  1.00107.06    -0.166 F 
HETATM   12  F27   D T2602     182.392 164.553 157.667  1.00102.60    -0.166 F 
HETATM   13  F28   D T2602     183.471 164.159 155.752  1.00103.37    -0.166 F 
ENDBRANCH   6  10
BRANCH   7  14
HETATM   14  C17   D T2602     182.509 161.778 157.930  1.00100.67     0.277 C 
BRANCH  14  15
HETATM   15  N18   D T2602     182.581 160.505 158.313  1.00104.04     0.146 N 
HETATM   16  C19   D T2602     181.372 160.096 158.615  1.00107.77     0.286 C 
HETATM   17  C20   D T2602     181.285 158.997 159.686  1.00107.78     0.286 C 
HETATM   18  N21   D T2602     182.417 158.324 159.705  1.00106.92     0.143 N 
HETATM   19  C22   D T2602     183.363 159.130 160.134  1.00103.68     0.286 C 
HETATM   20  C24   D T2602     182.293 157.309 160.508  1.00105.81     0.285 C 
HETATM   21  C23   D T2602     183.477 160.377 159.252  1.00104.89     0.286 C 
ENDBRANCH  14  15
ENDBRANCH   7  14
ENDBRANCH   1   4
BRANCH   2  22
HETATM   22  C05   D T2602     177.751 162.183 151.177  1.00 96.97     0.059 A 
HETATM   23  C04   D T2602     176.639 161.354 151.156  1.00 99.17     0.013 A 
HETATM   24  C03   D T2602     175.694 161.494 150.160  1.00 96.89     0.042 A 
HETATM   25  C02   D T2602     175.860 162.456 149.176  1.00 99.79     0.008 A 
HETATM   26  C07   D T2602     176.973 163.280 149.197  1.00100.07     0.001 A 
HETATM   27  C06   D T2602     177.922 163.145 150.197  1.00100.96     0.005 A 
BRANCH  24  28
HETATM   28  C29   D T2602     174.460 160.582 150.136  1.00 99.16    -0.059 C 
HETATM   29  C30   D T2602     173.506 159.863 150.111  1.00101.30    -0.058 C 
BRANCH  29  30
HETATM   30  C31   D T2602     172.289 158.922 150.086  1.00 99.24     0.061 A 
HETATM   31  C32   D T2602     172.436 157.550 150.064  1.00 99.88     0.015 A 
HETATM   32  C33   D T2602     171.334 156.810 150.040  1.00 95.59     0.059 A 
HETATM   33  C34   D T2602     170.034 157.386 150.043  1.00 97.44     0.185 A 
HETATM   34  C37   D T2602     170.987 155.413 150.013  1.00101.07     0.125 A 
HETATM   35  N35   D T2602     169.241 156.203 150.017  1.00 99.25    -0.129 NA
HETATM   36  N38   D T2602     169.829 158.696 150.068  1.00 99.75    -0.223 NA
HETATM   37  N36   D T2602     169.781 155.011 149.997  1.00101.72    -0.145 NA
HETATM   38  C39   D T2602     170.969 159.479 150.091  1.00 98.74     0.109 A 
ENDBRANCH  29  30
ENDBRANCH  24  28
ENDBRANCH   2  22
TORSDOF 7
ENDMDL
MODEL 2
REMARK VINA RESULT:      -6.3      1.041      1.248
REMARK  7 active torsions:
REMARK  status: ('A' for Active; 'I' for Inactive)
REMARK    1  A    between atoms: C13_1  and  C25_21 
REMARK    2  A    between atoms: C17_3  and  C14_7 
REMARK    3  A    between atoms: C17_3  and  N18_33 
REMARK    4  A    between atoms: C11_5  and  N10_10 
REMARK       I    between atoms: N10_10  and  C08_17 
REMARK    5  A    between atoms: C03_12  and  C29_22 
REMARK    6  A    between atoms: C05_14  and  C08_17 
REMARK    7  A    between atoms: C30_23  and  C31_24 
ROOT
HETATM    1  N10   D T2602     179.289 162.237 154.296  1.00 94.57    -0.208 NA
HETATM    2  C08   D T2602     178.802 161.117 153.493  1.00 96.06     0.279 C 
HETATM    3  O09   D T2602     179.067 160.011 153.800  1.00 99.47    -0.265 OA
ENDROOT
BRANCH   1   4
HETATM    4  C11   D T2602     180.124 161.982 155.497  1.00 98.39     0.085 A 
HETATM    5  C12   D T2602     181.121 162.883 155.851  1.00102.66     0.023 A 
HETATM    6  C13   D T2602     181.937 162.687 156.984  1.00102.89     0.071 A 
HETATM    7  C14   D T2602     181.730 161.531 157.791  1.00103.19     0.015 A 
HETATM    8  C15   D T2602     180.720 160.641 157.419  1.00105.74    -0.001 A 
HETATM    9  C16   D T2602     179.923 160.859 156.284  1.00102.06     0.019 A 
BRANCH   6  10
HETATM   10  C25   D T2602     183.022 163.721 157.309  1.00102.82     0.419 C 
HETATM   11  F26   D T2602     182.419 164.885 157.673  1.00107.06    -0.166 F 
HETATM   12  F27   D T2602     183.789 163.285 158.344  1.00102.60    -0.166 F 
HETATM   13  F28   D T2602     183.798 163.947 156.212  1.00103.37    -0.166 F 
ENDBRANCH   6  10
BRANCH   7  14
HETATM   14  C17   D T2602     182.606 161.260 159.068  1.00100.67     0.277 C 
BRANCH  14  15
HETATM   15  N18   D T2602     182.711 159.952 159.293  1.00104.04     0.146 N 
HETATM   16  C19   D T2602     182.527 159.322 158.157  1.00107.77     0.286 C 
HETATM   17  C20   D T2602     181.923 157.913 158.264  1.00107.78     0.286 C 
HETATM   18  N21   D T2602     182.195 157.417 159.454  1.00106.92     0.143 N 
HETATM   19  C22   D T2602     181.545 158.125 160.349  1.00103.68     0.286 C 
HETATM   20  C24   D T2602     181.809 156.175 159.493  1.00105.81     0.285 C 
HETATM   21  C23   D T2602     181.921 159.607 160.271  1.00104.89     0.286 C 
ENDBRANCH  14  15
ENDBRANCH   7  14
ENDBRANCH   1   4
BRANCH   2  22
HETATM   22  C05   D T2602     177.942 161.373 152.234  1.00 96.97     0.059 A 
HETATM   23  C04   D T2602     176.766 160.659 152.063  1.00 99.17     0.013 A 
HETATM   24  C03   D T2602     175.987 160.872 150.944  1.00 96.89     0.042 A 
HETATM   25  C02   D T2602     176.384 161.795 149.988  1.00 99.79     0.008 A 
HETATM   26  C07   D T2602     177.560 162.505 150.159  1.00100.07     0.001 A 
HETATM   27  C06   D T2602     178.344 162.295 151.283  1.00100.96     0.005 A 
BRANCH  24  28
HETATM   28  C29   D T2602     174.682 160.088 150.753  1.00 99.16    -0.059 C 
HETATM   29  C30   D T2602     173.673 159.466 150.600  1.00101.30    -0.058 C 
BRANCH  29  30
HETATM   30  C31   D T2602     172.383 158.651 150.411  1.00 99.24     0.061 A 
HETATM   31  C32   D T2602     172.384 157.272 150.466  1.00 99.88     0.015 A 
HETATM   32  C33   D T2602     171.227 156.645 150.289  1.00 95.59     0.059 A 
HETATM   33  C34   D T2602     170.012 157.346 150.056  1.00 97.44     0.185 A 
HETATM   34  C37   D T2602     170.742 155.290 150.259  1.00101.07     0.125 A 
HETATM   35  N35   D T2602     169.112 156.247 149.945  1.00 99.25    -0.129 NA
HETATM   36  N38   D T2602     169.947 158.669 149.997  1.00 99.75    -0.223 NA
HETATM   37  N36   D T2602     169.517 155.009 150.061  1.00101.72    -0.145 NA
HETATM   38  C39   D T2602     171.146 159.335 150.176  1.00 98.74     0.109 A 
ENDBRANCH  29  30
ENDBRANCH  24  28
ENDBRANCH   2  22
TORSDOF 7
ENDMDL
MODEL 3
REMARK VINA RESULT:      -5.7      4.743     12.720
REMARK  7 active torsions:
REMARK  status: ('A' for Active; 'I' for Inactive)
REMARK    1  A    between atoms: C13_1  and  C25_21 
REMARK    2  A    between atoms: C17_3  and  C14_7 
REMARK    3  A    between atoms: C17_3  and  N18_33 
REMARK    4  A    between atoms: C11_5  and  N10_10 
REMARK       I    between atoms: N10_10  and  C08_17 
REMARK    5  A    between atoms: C03_12  and  C29_22 
REMARK    6  A    between atoms: C05_14  and  C08_17 
REMARK    7  A    between atoms: C30_23  and  C31_24 
ROOT
HETATM    1  N10   D T2602     175.188 158.276 152.517  1.00 94.57    -0.208 NA
HETATM    2  C08   D T2602     175.763 159.592 152.243  1.00 96.06     0.279 C 
HETATM    3  O09   D T2602     175.299 160.276 151.403  1.00 99.47    -0.265 OA
ENDROOT
BRANCH   1   4
HETATM    4  C11   D T2602     174.021 157.797 151.734  1.00 98.39     0.085 A 
HETATM    5  C12   D T2602     173.155 158.715 151.152  1.00102.66     0.023 A 
HETATM    6  C13   D T2602     172.035 158.309 150.397  1.00102.89     0.071 A 
HETATM    7  C14   D T2602     171.788 156.916 150.224  1.00103.19     0.015 A 
HETATM    8  C15   D T2602     172.675 156.013 150.814  1.00105.74    -0.001 A 
HETATM    9  C16   D T2602     173.781 156.443 151.563  1.00102.06     0.019 A 
BRANCH   6  10
HETATM   10  C25   D T2602     171.119 159.378 149.790  1.00102.82     0.419 C 
HETATM   11  F26   D T2602     171.715 160.593 149.930  1.00107.06    -0.166 F 
HETATM   12  F27   D T2602     170.930 159.136 148.465  1.00102.60    -0.166 F 
HETATM   13  F28   D T2602     169.921 159.393 150.440  1.00103.37    -0.166 F 
ENDBRANCH   6  10
BRANCH   7  14
HETATM   14  C17   D T2602     170.559 156.403 149.390  1.00100.67     0.277 C 
BRANCH  14  15
HETATM   15  N18   D T2602     170.969 155.788 148.283  1.00104.04     0.146 N 
HETATM   16  C19   D T2602     171.748 156.610 147.619  1.00107.77     0.286 C 
HETATM   17  C20   D T2602     171.758 156.434 146.093  1.00107.78     0.286 C 
HETATM   18  N21   D T2602     171.417 155.196 145.799  1.00106.92     0.143 N 
HETATM   19  C22   D T2602     170.160 155.028 146.142  1.00103.68     0.286 C 
HETATM   20  C24   D T2602     171.564 155.008 144.520  1.00105.81     0.285 C 
HETATM   21  C23   D T2602     169.942 155.323 147.629  1.00104.89     0.286 C 
ENDBRANCH  14  15
ENDBRANCH   7  14
ENDBRANCH   1   4
BRANCH   2  22
HETATM   22  C05   D T2602     176.985 160.094 153.045  1.00 96.97     0.059 A 
HETATM   23  C04   D T2602     177.551 159.266 154.002  1.00 99.17     0.013 A 
HETATM   24  C03   D T2602     178.641 159.698 154.731  1.00 96.89     0.042 A 
HETATM   25  C02   D T2602     179.165 160.962 154.510  1.00 99.79     0.008 A 
HETATM   26  C07   D T2602     178.597 161.789 153.556  1.00100.07     0.001 A 
HETATM   27  C06   D T2602     177.504 161.357 152.821  1.00100.96     0.005 A 
BRANCH  24  28
HETATM   28  C29   D T2602     179.273 158.782 155.788  1.00 99.16    -0.059 C 
HETATM   29  C30   D T2602     179.770 158.081 156.617  1.00101.30    -0.058 C 
BRANCH  29  30
HETATM   30  C31   D T2602     180.404 157.189 157.698  1.00 99.24     0.061 A 
HETATM   31  C32   D T2602     181.606 157.517 158.293  1.00 99.88     0.015 A 
HETATM   32  C33   D T2602     182.085 156.691 159.216  1.00 95.59     0.059 A 
HETATM   33  C34   D T2602     181.400 155.506 159.602  1.00 97.44     0.185 A 
HETATM   34  C37   D T2602     183.237 156.603 160.074  1.00101.07     0.125 A 
HETATM   35  N35   D T2602     182.305 155.010 160.584  1.00 99.25    -0.129 NA
HETATM   36  N38   D T2602     180.242 155.141 159.070  1.00 99.75    -0.223 NA
HETATM   37  N36   D T2602     183.409 155.641 160.887  1.00101.72    -0.145 NA
HETATM   38  C39   D T2602     179.732 155.991 158.105  1.00 98.74     0.109 A 
ENDBRANCH  29  30
ENDBRANCH  24  28
ENDBRANCH   2  22
TORSDOF 7
ENDMDL
MODEL 4
REMARK VINA RESULT:      -5.3      4.647     12.803
REMARK  7 active torsions:
REMARK  status: ('A' for Active; 'I' for Inactive)
REMARK    1  A    between atoms: C13_1  and  C25_21 
REMARK    2  A    between atoms: C17_3  and  C14_7 
REMARK    3  A    between atoms: C17_3  and  N18_33 
REMARK    4  A    between atoms: C11_5  and  N10_10 
REMARK       I    between atoms: N10_10  and  C08_17 
REMARK    5  A    between atoms: C03_12  and  C29_22 
REMARK    6  A    between atoms: C05_14  and  C08_17 
REMARK    7  A    between atoms: C30_23  and  C31_24 
ROOT
HETATM    1  N10   D T2602     174.861 160.060 151.504  1.00 94.57    -0.208 NA
HETATM    2  C08   D T2602     175.850 159.426 152.373  1.00 96.06     0.279 C 
HETATM    3  O09   D T2602     175.701 158.310 152.721  1.00 99.47    -0.265 OA
ENDROOT
BRANCH   1   4
HETATM    4  C11   D T2602     173.664 159.301 151.062  1.00 98.39     0.085 A 
HETATM    5  C12   D T2602     173.371 158.072 151.642  1.00102.66     0.023 A 
HETATM    6  C13   D T2602     172.245 157.315 151.258  1.00102.89     0.071 A 
HETATM    7  C14   D T2602     171.381 157.829 150.248  1.00103.19     0.015 A 
HETATM    8  C15   D T2602     171.692 159.067 149.683  1.00105.74    -0.001 A 
HETATM    9  C16   D T2602     172.821 159.800 150.081  1.00102.06     0.019 A 
BRANCH   6  10
HETATM   10  C25   D T2602     171.989 155.965 151.937  1.00102.82     0.419 C 
HETATM   11  F26   D T2602     173.098 155.614 152.642  1.00107.06    -0.166 F 
HETATM   12  F27   D T2602     170.939 156.064 152.797  1.00102.60    -0.166 F 
HETATM   13  F28   D T2602     171.738 155.008 150.999  1.00103.37    -0.166 F 
ENDBRANCH   6  10
BRANCH   7  14
HETATM   14  C17   D T2602     170.109 157.032 149.781  1.00100.67     0.277 C 
BRANCH  14  15
HETATM   15  N18   D T2602     170.407 156.232 148.760  1.00104.04     0.146 N 
HETATM   16  C19   D T2602     171.490 156.691 148.179  1.00107.77     0.286 C 
HETATM   17  C20   D T2602     171.614 156.404 146.674  1.00107.78     0.286 C 
HETATM   18  N21   D T2602     170.905 155.333 146.380  1.00106.92     0.143 N 
HETATM   19  C22   D T2602     169.636 155.624 146.558  1.00103.68     0.286 C 
HETATM   20  C24   D T2602     171.123 155.009 145.140  1.00105.81     0.285 C 
HETATM   21  C23   D T2602     169.364 156.089 147.991  1.00104.89     0.286 C 
ENDBRANCH  14  15
ENDBRANCH   7  14
ENDBRANCH   1   4
BRANCH   2  22
HETATM   22  C05   D T2602     177.093 160.213 152.848  1.00 96.97     0.059 A 
HETATM   23  C04   D T2602     177.840 159.720 153.907  1.00 99.17     0.013 A 
HETATM   24  C03   D T2602     178.951 160.410 154.347  1.00 96.89     0.042 A 
HETATM   25  C02   D T2602     179.316 161.600 153.736  1.00 99.79     0.008 A 
HETATM   26  C07   D T2602     178.566 162.092 152.681  1.00100.07     0.001 A 
HETATM   27  C06   D T2602     177.451 161.400 152.234  1.00100.96     0.005 A 
BRANCH  24  28
HETATM   28  C29   D T2602     179.784 159.865 155.515  1.00 99.16    -0.059 C 
HETATM   29  C30   D T2602     180.430 159.453 156.431  1.00101.30    -0.058 C 
BRANCH  29  30
HETATM   30  C31   D T2602     181.249 158.927 157.623  1.00 99.24     0.061 A 
HETATM   31  C32   D T2602     181.500 157.580 157.790  1.00 99.88     0.015 A 
HETATM   32  C33   D T2602     182.212 157.210 158.848  1.00 95.59     0.059 A 
HETATM   33  C34   D T2602     182.717 158.150 159.788  1.00 97.44     0.185 A 
HETATM   34  C37   D T2602     182.710 155.989 159.424  1.00101.07     0.125 A 
HETATM   35  N35   D T2602     183.384 157.266 160.684  1.00 99.25    -0.129 NA
HETATM   36  N38   D T2602     182.512 159.455 159.679  1.00 99.75    -0.223 NA
HETATM   37  N36   D T2602     183.397 155.971 160.494  1.00101.72    -0.145 NA
HETATM   38  C39   D T2602     181.769 159.854 158.583  1.00 98.74     0.109 A 
ENDBRANCH  29  30
ENDBRANCH  24  28
ENDBRANCH   2  22
TORSDOF 7
ENDMDL
