MODEL 1
REMARK VINA RESULT:    -8.416      0.000      0.000
REMARK INTER + INTRA:         -11.621
REMARK INTER:                 -11.859
REMARK INTRA:                   0.238
REMARK UNBOUND:                 0.238
REMARK  7 active torsions:
REMARK  status: ('A' for Active; 'I' for Inactive)
REMARK    1  A    between atoms: C13_1  and  C25_21 
REMARK    2  A    between atoms: C17_3  and  C14_7 
REMARK    3  A    between atoms: C17_3  and  N18_33 
REMARK    4  A    between atoms: C11_5  and  N10_10 
REMARK       I    between atoms: N10_10  and  C08_17 
REMARK    5  A    between atoms: C03_12  and  C29_22 
REMARK    6  A    between atoms: C05_14  and  C08_17 
REMARK    7  A    between atoms: C30_23  and  C31_24 
ROOT
HETATM    1  N10   D T2602     183.040 155.585 158.881  1.00 94.57    -0.208 NA
HETATM    2  C08   D T2602     184.032 155.839 159.923  1.00 96.06     0.279 C 
HETATM    3  O09   D T2602     184.060 156.882 160.471  1.00 99.47    -0.265 OA
ENDROOT
BRANCH   1   4
HETATM    4  C11   D T2602     182.067 156.643 158.506  1.00 98.39     0.085 A 
HETATM    5  C12   D T2602     181.220 156.451 157.422  1.00102.66     0.023 A 
HETATM    6  C13   D T2602     180.277 157.424 157.030  1.00102.89     0.071 A 
HETATM    7  C14   D T2602     180.191 158.639 157.771  1.00103.19     0.015 A 
HETATM    8  C15   D T2602     181.050 158.807 158.859  1.00105.74    -0.001 A 
HETATM    9  C16   D T2602     181.981 157.824 159.227  1.00102.06     0.019 A 
BRANCH   6  10
HETATM   10  C25   D T2602     179.379 157.146 155.819  1.00102.82     0.419 C 
HETATM   11  F26   D T2602     179.575 155.861 155.417  1.00107.06    -0.166 F 
HETATM   12  F27   D T2602     178.071 157.301 156.159  1.00102.60    -0.166 F 
HETATM   13  F28   D T2602     179.701 157.985 154.794  1.00103.37    -0.166 F 
ENDBRANCH   6  10
BRANCH   7  14
HETATM   14  C17   D T2602     179.159 159.759 157.384  1.00100.67     0.277 C 
BRANCH  14  15
HETATM   15  N18   D T2602     179.713 160.638 156.552  1.00104.04     0.146 N 
HETATM   16  C19   D T2602     180.453 161.462 157.256  1.00107.77     0.286 C 
HETATM   17  C20   D T2602     180.598 162.882 156.687  1.00107.78     0.286 C 
HETATM   18  N21   D T2602     180.408 162.845 155.384  1.00106.92     0.143 N 
HETATM   19  C22   D T2602     179.152 162.529 155.164  1.00103.68     0.286 C 
HETATM   20  C24   D T2602     180.671 164.017 154.884  1.00105.81     0.285 C 
HETATM   21  C23   D T2602     178.792 161.189 155.813  1.00104.89     0.286 C 
ENDBRANCH  14  15
ENDBRANCH   7  14
ENDBRANCH   1   4
BRANCH   2  22
HETATM   22  C05   D T2602     185.056 154.748 160.311  1.00 96.97     0.059 A 
HETATM   23  C04   D T2602     185.963 155.004 161.328  1.00 99.17     0.013 A 
HETATM   24  C03   D T2602     186.886 154.043 161.686  1.00 96.89     0.042 A 
HETATM   25  C02   D T2602     186.912 152.825 161.024  1.00 99.79     0.008 A 
HETATM   26  C07   D T2602     186.008 152.572 160.007  1.00100.07     0.001 A 
HETATM   27  C06   D T2602     185.077 153.535 159.646  1.00100.96     0.005 A 
BRANCH  24  28
HETATM   28  C29   D T2602     187.888 154.320 162.815  1.00 99.16    -0.059 C 
HETATM   29  C30   D T2602     188.677 154.526 163.688  1.00101.30    -0.058 C 
BRANCH  29  30
HETATM   30  C31   D T2602     189.706 154.792 164.800  1.00 99.24     0.061 A 
HETATM   31  C32   D T2602     190.527 155.902 164.775  1.00 99.88     0.015 A 
HETATM   32  C33   D T2602     191.390 156.055 165.773  1.00 95.59     0.059 A 
HETATM   33  C34   D T2602     191.481 155.127 166.846  1.00 97.44     0.185 A 
HETATM   34  C37   D T2602     192.402 156.998 166.172  1.00101.07     0.125 A 
HETATM   35  N35   D T2602     192.515 155.739 167.611  1.00 99.25    -0.129 NA
HETATM   36  N38   D T2602     190.718 154.046 166.927  1.00 99.75    -0.223 NA
HETATM   37  N36   D T2602     193.085 156.855 167.235  1.00101.72    -0.145 NA
HETATM   38  C39   D T2602     189.816 153.873 165.893  1.00 98.74     0.109 A 
ENDBRANCH  29  30
ENDBRANCH  24  28
ENDBRANCH   2  22
TORSDOF 7
ENDMDL
MODEL 2
REMARK VINA RESULT:    -8.370      3.247      4.259
REMARK INTER + INTRA:         -11.557
REMARK INTER:                 -11.063
REMARK INTRA:                  -0.493
REMARK UNBOUND:                 0.238
REMARK  7 active torsions:
REMARK  status: ('A' for Active; 'I' for Inactive)
REMARK    1  A    between atoms: C13_1  and  C25_21 
REMARK    2  A    between atoms: C17_3  and  C14_7 
REMARK    3  A    between atoms: C17_3  and  N18_33 
REMARK    4  A    between atoms: C11_5  and  N10_10 
REMARK       I    between atoms: N10_10  and  C08_17 
REMARK    5  A    between atoms: C03_12  and  C29_22 
REMARK    6  A    between atoms: C05_14  and  C08_17 
REMARK    7  A    between atoms: C30_23  and  C31_24 
ROOT
HETATM    1  N10   D T2602     183.344 156.609 160.324  1.00 94.57    -0.208 NA
HETATM    2  C08   D T2602     183.712 155.394 159.600  1.00 96.06     0.279 C 
HETATM    3  O09   D T2602     183.327 155.223 158.499  1.00 99.47    -0.265 OA
ENDROOT
BRANCH   1   4
HETATM    4  C11   D T2602     182.480 157.628 159.676  1.00 98.39     0.085 A 
HETATM    5  C12   D T2602     183.045 158.790 159.165  1.00102.66     0.023 A 
HETATM    6  C13   D T2602     182.268 159.785 158.538  1.00102.89     0.071 A 
HETATM    7  C14   D T2602     180.860 159.590 158.422  1.00103.19     0.015 A 
HETATM    8  C15   D T2602     180.316 158.413 158.938  1.00105.74    -0.001 A 
HETATM    9  C16   D T2602     181.112 157.438 159.560  1.00102.06     0.019 A 
BRANCH   6  10
HETATM   10  C25   D T2602     182.959 161.045 158.004  1.00102.82     0.419 C 
HETATM   11  F26   D T2602     184.249 160.738 157.699  1.00107.06    -0.166 F 
HETATM   12  F27   D T2602     182.336 161.480 156.875  1.00102.60    -0.166 F 
HETATM   13  F28   D T2602     182.948 162.024 158.953  1.00103.37    -0.166 F 
ENDBRANCH   6  10
BRANCH   7  14
HETATM   14  C17   D T2602     179.943 160.662 157.730  1.00100.67     0.277 C 
BRANCH  14  15
HETATM   15  N18   D T2602     178.904 160.075 157.139  1.00104.04     0.146 N 
HETATM   16  C19   D T2602     179.286 159.655 155.956  1.00107.77     0.286 C 
HETATM   17  C20   D T2602     178.191 159.606 154.878  1.00107.78     0.286 C 
HETATM   18  N21   D T2602     177.017 159.484 155.462  1.00106.92     0.143 N 
HETATM   19  C22   D T2602     176.776 160.591 156.128  1.00103.68     0.286 C 
HETATM   20  C24   D T2602     176.108 159.300 154.551  1.00105.81     0.285 C 
HETATM   21  C23   D T2602     177.876 160.877 157.154  1.00104.89     0.286 C 
ENDBRANCH  14  15
ENDBRANCH   7  14
ENDBRANCH   1   4
BRANCH   2  22
HETATM   22  C05   D T2602     184.601 154.322 160.271  1.00 96.97     0.059 A 
HETATM   23  C04   D T2602     184.827 154.392 161.637  1.00 99.17     0.013 A 
HETATM   24  C03   D T2602     185.621 153.446 162.254  1.00 96.89     0.042 A 
HETATM   25  C02   D T2602     186.197 152.431 161.507  1.00 99.79     0.008 A 
HETATM   26  C07   D T2602     185.973 152.365 160.142  1.00100.07     0.001 A 
HETATM   27  C06   D T2602     185.174 153.312 159.520  1.00100.96     0.005 A 
BRANCH  24  28
HETATM   28  C29   D T2602     185.869 153.517 163.767  1.00 99.16    -0.059 C 
HETATM   29  C30   D T2602     186.051 153.565 164.947  1.00101.30    -0.058 C 
BRANCH  29  30
HETATM   30  C31   D T2602     186.281 153.608 166.467  1.00 99.24     0.061 A 
HETATM   31  C32   D T2602     185.242 153.820 167.350  1.00 99.88     0.015 A 
HETATM   32  C33   D T2602     185.528 153.846 168.647  1.00 95.59     0.059 A 
HETATM   33  C34   D T2602     186.850 153.657 169.135  1.00 97.44     0.185 A 
HETATM   34  C37   D T2602     184.826 154.024 169.891  1.00101.07     0.125 A 
HETATM   35  N35   D T2602     186.612 153.769 170.536  1.00 99.25    -0.129 NA
HETATM   36  N38   D T2602     187.887 153.446 168.337  1.00 99.75    -0.223 NA
HETATM   37  N36   D T2602     185.415 153.989 171.017  1.00101.72    -0.145 NA
HETATM   38  C39   D T2602     187.604 153.419 166.984  1.00 98.74     0.109 A 
ENDBRANCH  29  30
ENDBRANCH  24  28
ENDBRANCH   2  22
TORSDOF 7
ENDMDL
MODEL 3
REMARK VINA RESULT:    -8.313     16.153     18.587
REMARK INTER + INTRA:         -11.477
REMARK INTER:                 -11.025
REMARK INTRA:                  -0.452
REMARK UNBOUND:                 0.238
REMARK  7 active torsions:
REMARK  status: ('A' for Active; 'I' for Inactive)
REMARK    1  A    between atoms: C13_1  and  C25_21 
REMARK    2  A    between atoms: C17_3  and  C14_7 
REMARK    3  A    between atoms: C17_3  and  N18_33 
REMARK    4  A    between atoms: C11_5  and  N10_10 
REMARK       I    between atoms: N10_10  and  C08_17 
REMARK    5  A    between atoms: C03_12  and  C29_22 
REMARK    6  A    between atoms: C05_14  and  C08_17 
REMARK    7  A    between atoms: C30_23  and  C31_24 
ROOT
HETATM    1  N10   D T2602     170.821 159.060 149.299  1.00 94.57    -0.208 NA
HETATM    2  C08   D T2602     170.727 157.651 148.924  1.00 96.06     0.279 C 
HETATM    3  O09   D T2602     170.126 157.334 147.962  1.00 99.47    -0.265 OA
ENDROOT
BRANCH   1   4
HETATM    4  C11   D T2602     170.155 160.096 148.469  1.00 98.39     0.085 A 
HETATM    5  C12   D T2602     170.869 160.745 147.469  1.00102.66     0.023 A 
HETATM    6  C13   D T2602     170.280 161.733 146.652  1.00102.89     0.071 A 
HETATM    7  C14   D T2602     168.911 162.072 146.859  1.00103.19     0.015 A 
HETATM    8  C15   D T2602     168.213 161.403 147.866  1.00105.74    -0.001 A 
HETATM    9  C16   D T2602     168.823 160.425 148.667  1.00102.06     0.019 A 
BRANCH   6  10
HETATM   10  C25   D T2602     171.131 162.412 145.573  1.00102.82     0.419 C 
HETATM   11  F26   D T2602     172.433 162.065 145.763  1.00107.06    -0.166 F 
HETATM   12  F27   D T2602     170.744 161.992 144.338  1.00102.60    -0.166 F 
HETATM   13  F28   D T2602     171.014 163.767 145.667  1.00103.37    -0.166 F 
ENDBRANCH   6  10
BRANCH   7  14
HETATM   14  C17   D T2602     168.199 163.161 145.978  1.00100.67     0.277 C 
BRANCH  14  15
HETATM   15  N18   D T2602     167.035 163.513 146.520  1.00104.04     0.146 N 
HETATM   16  C19   D T2602     166.237 163.913 145.559  1.00107.77     0.286 C 
HETATM   17  C20   D T2602     165.190 164.967 145.955  1.00107.78     0.286 C 
HETATM   18  N21   D T2602     164.951 164.872 147.247  1.00106.92     0.143 N 
HETATM   19  C22   D T2602     166.039 165.230 147.890  1.00103.68     0.286 C 
HETATM   20  C24   D T2602     163.966 165.664 147.554  1.00105.81     0.285 C 
HETATM   21  C23   D T2602     167.237 164.365 147.486  1.00104.89     0.286 C 
ENDBRANCH  14  15
ENDBRANCH   7  14
ENDBRANCH   1   4
BRANCH   2  22
HETATM   22  C05   D T2602     171.407 156.565 149.789  1.00 96.97     0.059 A 
HETATM   23  C04   D T2602     171.004 156.400 151.105  1.00 99.17     0.013 A 
HETATM   24  C03   D T2602     171.602 155.438 151.894  1.00 96.89     0.042 A 
HETATM   25  C02   D T2602     172.610 154.641 151.372  1.00 99.79     0.008 A 
HETATM   26  C07   D T2602     173.012 154.809 150.058  1.00100.07     0.001 A 
HETATM   27  C06   D T2602     172.412 155.773 149.263  1.00100.96     0.005 A 
BRANCH  24  28
HETATM   28  C29   D T2602     171.155 155.249 153.350  1.00 99.16    -0.059 C 
HETATM   29  C30   D T2602     170.795 155.097 154.479  1.00101.30    -0.058 C 
BRANCH  29  30
HETATM   30  C31   D T2602     170.324 154.886 155.928  1.00 99.24     0.061 A 
HETATM   31  C32   D T2602     169.687 153.726 156.319  1.00 99.88     0.015 A 
HETATM   32  C33   D T2602     169.310 153.625 157.588  1.00 95.59     0.059 A 
HETATM   33  C34   D T2602     169.550 154.659 158.535  1.00 97.44     0.185 A 
HETATM   34  C37   D T2602     168.647 152.665 158.431  1.00101.07     0.125 A 
HETATM   35  N35   D T2602     168.975 154.066 159.696  1.00 99.25    -0.129 NA
HETATM   36  N38   D T2602     170.160 155.792 158.220  1.00 99.75    -0.223 NA
HETATM   37  N36   D T2602     168.429 152.877 159.666  1.00101.72    -0.145 NA
HETATM   38  C39   D T2602     170.556 155.912 156.900  1.00 98.74     0.109 A 
ENDBRANCH  29  30
ENDBRANCH  24  28
ENDBRANCH   2  22
TORSDOF 7
ENDMDL
MODEL 4
REMARK VINA RESULT:    -7.537     16.164     18.073
REMARK INTER + INTRA:         -10.383
REMARK INTER:                 -10.028
REMARK INTRA:                  -0.355
REMARK UNBOUND:                 0.238
REMARK  7 active torsions:
REMARK  status: ('A' for Active; 'I' for Inactive)
REMARK    1  A    between atoms: C13_1  and  C25_21 
REMARK    2  A    between atoms: C17_3  and  C14_7 
REMARK    3  A    between atoms: C17_3  and  N18_33 
REMARK    4  A    between atoms: C11_5  and  N10_10 
REMARK       I    between atoms: N10_10  and  C08_17 
REMARK    5  A    between atoms: C03_12  and  C29_22 
REMARK    6  A    between atoms: C05_14  and  C08_17 
REMARK    7  A    between atoms: C30_23  and  C31_24 
ROOT
HETATM    1  N10   D T2602     171.481 157.565 147.843  1.00 94.57    -0.208 NA
HETATM    2  C08   D T2602     172.709 156.783 147.712  1.00 96.06     0.279 C 
HETATM    3  O09   D T2602     173.533 157.104 146.935  1.00 99.47    -0.265 OA
ENDROOT
BRANCH   1   4
HETATM    4  C11   D T2602     171.269 158.763 146.993  1.00 98.39     0.085 A 
HETATM    5  C12   D T2602     170.764 159.929 147.554  1.00102.66     0.023 A 
HETATM    6  C13   D T2602     170.548 161.094 146.789  1.00102.89     0.071 A 
HETATM    7  C14   D T2602     170.860 161.073 145.398  1.00103.19     0.015 A 
HETATM    8  C15   D T2602     171.371 159.891 144.857  1.00105.74    -0.001 A 
HETATM    9  C16   D T2602     171.574 158.745 145.640  1.00102.06     0.019 A 
BRANCH   6  10
HETATM   10  C25   D T2602     169.982 162.342 147.475  1.00102.82     0.419 C 
HETATM   11  F26   D T2602     168.743 162.593 146.970  1.00107.06    -0.166 F 
HETATM   12  F27   D T2602     169.872 162.132 148.814  1.00102.60    -0.166 F 
HETATM   13  F28   D T2602     170.785 163.416 147.232  1.00103.37    -0.166 F 
ENDBRANCH   6  10
BRANCH   7  14
HETATM   14  C17   D T2602     170.645 162.340 144.494  1.00100.67     0.277 C 
BRANCH  14  15
HETATM   15  N18   D T2602     171.683 162.516 143.681  1.00104.04     0.146 N 
HETATM   16  C19   D T2602     172.663 163.050 144.371  1.00107.77     0.286 C 
HETATM   17  C20   D T2602     173.626 163.948 143.579  1.00107.78     0.286 C 
HETATM   18  N21   D T2602     173.603 163.593 142.311  1.00106.92     0.143 N 
HETATM   19  C22   D T2602     172.414 163.878 141.830  1.00103.68     0.286 C 
HETATM   20  C24   D T2602     174.520 164.254 141.668  1.00105.81     0.285 C 
HETATM   21  C23   D T2602     171.307 163.175 142.620  1.00104.89     0.286 C 
ENDBRANCH  14  15
ENDBRANCH   7  14
ENDBRANCH   1   4
BRANCH   2  22
HETATM   22  C05   D T2602     172.933 155.527 148.586  1.00 96.97     0.059 A 
HETATM   23  C04   D T2602     172.338 155.459 149.836  1.00 99.17     0.013 A 
HETATM   24  C03   D T2602     172.529 154.348 150.631  1.00 96.89     0.042 A 
HETATM   25  C02   D T2602     173.322 153.303 150.183  1.00 99.79     0.008 A 
HETATM   26  C07   D T2602     173.918 153.373 148.935  1.00100.07     0.001 A 
HETATM   27  C06   D T2602     173.726 154.488 148.133  1.00100.96     0.005 A 
BRANCH  24  28
HETATM   28  C29   D T2602     171.867 154.266 152.014  1.00 99.16    -0.059 C 
HETATM   29  C30   D T2602     171.363 154.195 153.094  1.00101.30    -0.058 C 
BRANCH  29  30
HETATM   30  C31   D T2602     170.730 154.106 154.493  1.00 99.24     0.061 A 
HETATM   31  C32   D T2602     170.934 155.086 155.443  1.00 99.88     0.015 A 
HETATM   32  C33   D T2602     170.354 154.931 156.627  1.00 95.59     0.059 A 
HETATM   33  C34   D T2602     169.539 153.806 156.930  1.00 97.44     0.185 A 
HETATM   34  C37   D T2602     170.271 155.642 157.876  1.00101.07     0.125 A 
HETATM   35  N35   D T2602     169.176 154.121 158.271  1.00 99.25    -0.129 NA
HETATM   36  N38   D T2602     169.302 152.835 156.059  1.00 99.75    -0.223 NA
HETATM   37  N36   D T2602     169.598 155.209 158.864  1.00101.72    -0.145 NA
HETATM   38  C39   D T2602     169.903 152.983 154.822  1.00 98.74     0.109 A 
ENDBRANCH  29  30
ENDBRANCH  24  28
ENDBRANCH   2  22
TORSDOF 7
ENDMDL
MODEL 5
REMARK VINA RESULT:    -7.447      2.296      2.981
REMARK INTER + INTRA:         -10.256
REMARK INTER:                  -9.483
REMARK INTRA:                  -0.773
REMARK UNBOUND:                 0.238
REMARK  7 active torsions:
REMARK  status: ('A' for Active; 'I' for Inactive)
REMARK    1  A    between atoms: C13_1  and  C25_21 
REMARK    2  A    between atoms: C17_3  and  C14_7 
REMARK    3  A    between atoms: C17_3  and  N18_33 
REMARK    4  A    between atoms: C11_5  and  N10_10 
REMARK       I    between atoms: N10_10  and  C08_17 
REMARK    5  A    between atoms: C03_12  and  C29_22 
REMARK    6  A    between atoms: C05_14  and  C08_17 
REMARK    7  A    between atoms: C30_23  and  C31_24 
ROOT
HETATM    1  N10   D T2602     183.283 156.822 160.451  1.00 94.57    -0.208 NA
HETATM    2  C08   D T2602     183.864 155.696 159.722  1.00 96.06     0.279 C 
HETATM    3  O09   D T2602     183.678 155.584 158.564  1.00 99.47    -0.265 OA
ENDROOT
BRANCH   1   4
HETATM    4  C11   D T2602     182.453 157.823 159.735  1.00 98.39     0.085 A 
HETATM    5  C12   D T2602     183.038 158.985 159.247  1.00102.66     0.023 A 
HETATM    6  C13   D T2602     182.292 159.963 158.557  1.00102.89     0.071 A 
HETATM    7  C14   D T2602     180.897 159.751 158.354  1.00103.19     0.015 A 
HETATM    8  C15   D T2602     180.332 158.574 158.850  1.00105.74    -0.001 A 
HETATM    9  C16   D T2602     181.097 157.616 159.535  1.00102.06     0.019 A 
BRANCH   6  10
HETATM   10  C25   D T2602     183.003 161.224 158.053  1.00102.82     0.419 C 
HETATM   11  F26   D T2602     184.343 161.066 158.227  1.00107.06    -0.166 F 
HETATM   12  F27   D T2602     182.754 161.404 156.728  1.00102.60    -0.166 F 
HETATM   13  F28   D T2602     182.589 162.312 158.761  1.00103.37    -0.166 F 
ENDBRANCH   6  10
BRANCH   7  14
HETATM   14  C17   D T2602     180.015 160.803 157.590  1.00100.67     0.277 C 
BRANCH  14  15
HETATM   15  N18   D T2602     178.960 160.213 157.035  1.00104.04     0.146 N 
HETATM   16  C19   D T2602     179.282 159.855 155.814  1.00107.77     0.286 C 
HETATM   17  C20   D T2602     178.127 159.820 154.801  1.00107.78     0.286 C 
HETATM   18  N21   D T2602     176.993 159.639 155.445  1.00106.92     0.143 N 
HETATM   19  C22   D T2602     176.762 160.709 156.173  1.00103.68     0.286 C 
HETATM   20  C24   D T2602     176.037 159.467 154.581  1.00105.81     0.285 C 
HETATM   21  C23   D T2602     177.913 160.982 157.146  1.00104.89     0.286 C 
ENDBRANCH  14  15
ENDBRANCH   7  14
ENDBRANCH   1   4
BRANCH   2  22
HETATM   22  C05   D T2602     184.720 154.643 160.461  1.00 96.97     0.059 A 
HETATM   23  C04   D T2602     185.747 155.069 161.290  1.00 99.17     0.013 A 
HETATM   24  C03   D T2602     186.524 154.143 161.956  1.00 96.89     0.042 A 
HETATM   25  C02   D T2602     186.283 152.788 161.791  1.00 99.79     0.008 A 
HETATM   26  C07   D T2602     185.259 152.365 160.961  1.00100.07     0.001 A 
HETATM   27  C06   D T2602     184.475 153.292 160.292  1.00100.96     0.005 A 
BRANCH  24  28
HETATM   28  C29   D T2602     187.659 154.610 162.878  1.00 99.16    -0.059 C 
HETATM   29  C30   D T2602     188.551 154.965 163.590  1.00101.30    -0.058 C 
BRANCH  29  30
HETATM   30  C31   D T2602     189.710 155.423 164.490  1.00 99.24     0.061 A 
HETATM   31  C32   D T2602     190.396 156.596 164.246  1.00 99.88     0.015 A 
HETATM   32  C33   D T2602     191.386 156.917 165.070  1.00 95.59     0.059 A 
HETATM   33  C34   D T2602     191.743 156.102 166.180  1.00 97.44     0.185 A 
HETATM   34  C37   D T2602     192.345 157.979 165.223  1.00101.07     0.125 A 
HETATM   35  N35   D T2602     192.816 156.872 166.714  1.00 99.25    -0.129 NA
HETATM   36  N38   D T2602     191.119 154.969 166.468  1.00 99.75    -0.223 NA
HETATM   37  N36   D T2602     193.199 157.997 166.165  1.00101.72    -0.145 NA
HETATM   38  C39   D T2602     190.087 154.621 165.615  1.00 98.74     0.109 A 
ENDBRANCH  29  30
ENDBRANCH  24  28
ENDBRANCH   2  22
TORSDOF 7
ENDMDL
MODEL 6
REMARK VINA RESULT:    -7.148     13.979     15.964
REMARK INTER + INTRA:          -9.835
REMARK INTER:                  -8.986
REMARK INTRA:                  -0.848
REMARK UNBOUND:                 0.238
REMARK  7 active torsions:
REMARK  status: ('A' for Active; 'I' for Inactive)
REMARK    1  A    between atoms: C13_1  and  C25_21 
REMARK    2  A    between atoms: C17_3  and  C14_7 
REMARK    3  A    between atoms: C17_3  and  N18_33 
REMARK    4  A    between atoms: C11_5  and  N10_10 
REMARK       I    between atoms: N10_10  and  C08_17 
REMARK    5  A    between atoms: C03_12  and  C29_22 
REMARK    6  A    between atoms: C05_14  and  C08_17 
REMARK    7  A    between atoms: C30_23  and  C31_24 
ROOT
HETATM    1  N10   D T2602     186.125 170.687 166.528  1.00 94.57    -0.208 NA
HETATM    2  C08   D T2602     185.750 170.442 167.919  1.00 96.06     0.279 C 
HETATM    3  O09   D T2602     185.244 171.296 168.553  1.00 99.47    -0.265 OA
ENDROOT
BRANCH   1   4
HETATM    4  C11   D T2602     185.873 172.015 165.913  1.00 98.39     0.085 A 
HETATM    5  C12   D T2602     184.632 172.294 165.354  1.00102.66     0.023 A 
HETATM    6  C13   D T2602     184.343 173.541 164.762  1.00102.89     0.071 A 
HETATM    7  C14   D T2602     185.355 174.545 164.739  1.00103.19     0.015 A 
HETATM    8  C15   D T2602     186.593 174.243 165.310  1.00105.74    -0.001 A 
HETATM    9  C16   D T2602     186.856 172.993 165.892  1.00102.06     0.019 A 
BRANCH   6  10
HETATM   10  C25   D T2602     182.954 173.776 164.159  1.00102.82     0.419 C 
HETATM   11  F26   D T2602     182.234 174.553 165.013  1.00107.06    -0.166 F 
HETATM   12  F27   D T2602     183.062 174.423 162.967  1.00102.60    -0.166 F 
HETATM   13  F28   D T2602     182.308 172.587 163.991  1.00103.37    -0.166 F 
ENDBRANCH   6  10
BRANCH   7  14
HETATM   14  C17   D T2602     185.092 175.954 164.096  1.00100.67     0.277 C 
BRANCH  14  15
HETATM   15  N18   D T2602     185.298 176.920 164.988  1.00104.04     0.146 N 
HETATM   16  C19   D T2602     184.169 177.149 165.617  1.00107.77     0.286 C 
HETATM   17  C20   D T2602     183.969 178.584 166.130  1.00107.78     0.286 C 
HETATM   18  N21   D T2602     185.146 179.146 166.309  1.00106.92     0.143 N 
HETATM   19  C22   D T2602     185.712 179.292 165.132  1.00103.68     0.286 C 
HETATM   20  C24   D T2602     184.981 180.305 166.876  1.00105.81     0.285 C 
HETATM   21  C23   D T2602     185.845 177.950 164.406  1.00104.89     0.286 C 
ENDBRANCH  14  15
ENDBRANCH   7  14
ENDBRANCH   1   4
BRANCH   2  22
HETATM   22  C05   D T2602     186.020 169.067 168.571  1.00 96.97     0.059 A 
HETATM   23  C04   D T2602     186.614 168.067 167.816  1.00 99.17     0.013 A 
HETATM   24  C03   D T2602     186.860 166.831 168.380  1.00 96.89     0.042 A 
HETATM   25  C02   D T2602     186.506 166.588 169.698  1.00 99.79     0.008 A 
HETATM   26  C07   D T2602     185.909 167.587 170.449  1.00100.07     0.001 A 
HETATM   27  C06   D T2602     185.663 168.830 169.887  1.00100.96     0.005 A 
BRANCH  24  28
HETATM   28  C29   D T2602     187.522 165.724 167.550  1.00 99.16    -0.059 C 
HETATM   29  C30   D T2602     188.050 164.870 166.902  1.00101.30    -0.058 C 
BRANCH  29  30
HETATM   30  C31   D T2602     188.744 163.771 166.080  1.00 99.24     0.061 A 
HETATM   31  C32   D T2602     188.751 162.454 166.492  1.00 99.88     0.015 A 
HETATM   32  C33   D T2602     189.375 161.568 165.725  1.00 95.59     0.059 A 
HETATM   33  C34   D T2602     190.018 161.937 164.511  1.00 97.44     0.185 A 
HETATM   34  C37   D T2602     189.643 160.154 165.728  1.00101.07     0.125 A 
HETATM   35  N35   D T2602     190.506 160.664 164.096  1.00 99.25    -0.129 NA
HETATM   36  N38   D T2602     190.043 163.184 164.062  1.00 99.75    -0.223 NA
HETATM   37  N36   D T2602     190.298 159.582 164.801  1.00101.72    -0.145 NA
HETATM   38  C39   D T2602     189.398 164.117 164.853  1.00 98.74     0.109 A 
ENDBRANCH  29  30
ENDBRANCH  24  28
ENDBRANCH   2  22
TORSDOF 7
ENDMDL
MODEL 7
REMARK VINA RESULT:    -7.048     14.774     19.440
REMARK INTER + INTRA:          -9.694
REMARK INTER:                  -8.863
REMARK INTRA:                  -0.831
REMARK UNBOUND:                 0.238
REMARK  7 active torsions:
REMARK  status: ('A' for Active; 'I' for Inactive)
REMARK    1  A    between atoms: C13_1  and  C25_21 
REMARK    2  A    between atoms: C17_3  and  C14_7 
REMARK    3  A    between atoms: C17_3  and  N18_33 
REMARK    4  A    between atoms: C11_5  and  N10_10 
REMARK       I    between atoms: N10_10  and  C08_17 
REMARK    5  A    between atoms: C03_12  and  C29_22 
REMARK    6  A    between atoms: C05_14  and  C08_17 
REMARK    7  A    between atoms: C30_23  and  C31_24 
ROOT
HETATM    1  N10   D T2602     188.037 170.756 165.755  1.00 94.57    -0.208 NA
HETATM    2  C08   D T2602     186.978 171.506 165.082  1.00 96.06     0.279 C 
HETATM    3  O09   D T2602     186.114 170.935 164.521  1.00 99.47    -0.265 OA
ENDROOT
BRANCH   1   4
HETATM    4  C11   D T2602     188.026 169.272 165.730  1.00 98.39     0.085 A 
HETATM    5  C12   D T2602     188.657 168.593 164.695  1.00102.66     0.023 A 
HETATM    6  C13   D T2602     188.678 167.184 164.629  1.00102.89     0.071 A 
HETATM    7  C14   D T2602     188.034 166.436 165.658  1.00103.19     0.015 A 
HETATM    8  C15   D T2602     187.411 167.140 166.690  1.00105.74    -0.001 A 
HETATM    9  C16   D T2602     187.402 168.543 166.731  1.00102.06     0.019 A 
BRANCH   6  10
HETATM   10  C25   D T2602     189.388 166.504 163.453  1.00102.82     0.419 C 
HETATM   11  F26   D T2602     189.801 167.462 162.580  1.00107.06    -0.166 F 
HETATM   12  F27   D T2602     190.477 165.819 163.896  1.00102.60    -0.166 F 
HETATM   13  F28   D T2602     188.531 165.659 162.812  1.00103.37    -0.166 F 
ENDBRANCH   6  10
BRANCH   7  14
HETATM   14  C17   D T2602     188.027 164.865 165.640  1.00100.67     0.277 C 
BRANCH  14  15
HETATM   15  N18   D T2602     187.971 164.384 166.880  1.00104.04     0.146 N 
HETATM   16  C19   D T2602     189.147 163.889 167.184  1.00107.77     0.286 C 
HETATM   17  C20   D T2602     189.143 162.724 168.186  1.00107.78     0.286 C 
HETATM   18  N21   D T2602     188.058 162.797 168.928  1.00106.92     0.143 N 
HETATM   19  C22   D T2602     187.020 162.571 168.155  1.00103.68     0.286 C 
HETATM   20  C24   D T2602     188.124 161.898 169.866  1.00105.81     0.285 C 
HETATM   21  C23   D T2602     186.962 163.566 166.992  1.00104.89     0.286 C 
ENDBRANCH  14  15
ENDBRANCH   7  14
ENDBRANCH   1   4
BRANCH   2  22
HETATM   22  C05   D T2602     186.988 173.052 165.092  1.00 96.97     0.059 A 
HETATM   23  C04   D T2602     185.884 173.730 165.586  1.00 99.17     0.013 A 
HETATM   24  C03   D T2602     185.872 175.110 165.601  1.00 96.89     0.042 A 
HETATM   25  C02   D T2602     186.961 175.818 165.115  1.00 99.79     0.008 A 
HETATM   26  C07   D T2602     188.061 175.139 164.619  1.00100.07     0.001 A 
HETATM   27  C06   D T2602     188.077 173.753 164.605  1.00100.96     0.005 A 
BRANCH  24  28
HETATM   28  C29   D T2602     184.655 175.865 166.152  1.00 99.16    -0.059 C 
HETATM   29  C30   D T2602     183.698 176.443 166.574  1.00101.30    -0.058 C 
BRANCH  29  30
HETATM   30  C31   D T2602     182.459 177.171 167.122  1.00 99.24     0.061 A 
HETATM   31  C32   D T2602     182.261 178.521 166.912  1.00 99.88     0.015 A 
HETATM   32  C33   D T2602     181.166 179.072 167.423  1.00 95.59     0.059 A 
HETATM   33  C34   D T2602     180.211 178.319 168.158  1.00 97.44     0.185 A 
HETATM   34  C37   D T2602     180.550 180.372 167.471  1.00101.07     0.125 A 
HETATM   35  N35   D T2602     179.271 179.346 168.461  1.00 99.25    -0.129 NA
HETATM   36  N38   D T2602     180.344 177.021 168.389  1.00 99.75    -0.223 NA
HETATM   37  N36   D T2602     179.445 180.581 168.065  1.00101.72    -0.145 NA
HETATM   38  C39   D T2602     181.481 176.434 167.865  1.00 98.74     0.109 A 
ENDBRANCH  29  30
ENDBRANCH  24  28
ENDBRANCH   2  22
TORSDOF 7
ENDMDL
MODEL 8
REMARK VINA RESULT:    -6.911     16.367     18.668
REMARK INTER + INTRA:          -9.500
REMARK INTER:                  -8.628
REMARK INTRA:                  -0.872
REMARK UNBOUND:                 0.238
REMARK  7 active torsions:
REMARK  status: ('A' for Active; 'I' for Inactive)
REMARK    1  A    between atoms: C13_1  and  C25_21 
REMARK    2  A    between atoms: C17_3  and  C14_7 
REMARK    3  A    between atoms: C17_3  and  N18_33 
REMARK    4  A    between atoms: C11_5  and  N10_10 
REMARK       I    between atoms: N10_10  and  C08_17 
REMARK    5  A    between atoms: C03_12  and  C29_22 
REMARK    6  A    between atoms: C05_14  and  C08_17 
REMARK    7  A    between atoms: C30_23  and  C31_24 
ROOT
HETATM    1  N10   D T2602     171.496 156.949 147.785  1.00 94.57    -0.208 NA
HETATM    2  C08   D T2602     172.718 156.164 147.622  1.00 96.06     0.279 C 
HETATM    3  O09   D T2602     173.372 156.285 146.650  1.00 99.47    -0.265 OA
ENDROOT
BRANCH   1   4
HETATM    4  C11   D T2602     171.074 157.896 146.722  1.00 98.39     0.085 A 
HETATM    5  C12   D T2602     170.439 157.419 145.582  1.00102.66     0.023 A 
HETATM    6  C13   D T2602     170.017 158.278 144.547  1.00102.89     0.071 A 
HETATM    7  C14   D T2602     170.246 159.679 144.677  1.00103.19     0.015 A 
HETATM    8  C15   D T2602     170.881 160.136 145.833  1.00105.74    -0.001 A 
HETATM    9  C16   D T2602     171.294 159.259 146.848  1.00102.06     0.019 A 
BRANCH   6  10
HETATM   10  C25   D T2602     169.329 157.679 143.315  1.00102.82     0.419 C 
HETATM   11  F26   D T2602     168.116 158.276 143.160  1.00107.06    -0.166 F 
HETATM   12  F27   D T2602     170.075 157.913 142.201  1.00102.60    -0.166 F 
HETATM   13  F28   D T2602     169.146 156.339 143.484  1.00103.37    -0.166 F 
ENDBRANCH   6  10
BRANCH   7  14
HETATM   14  C17   D T2602     169.795 160.687 143.559  1.00100.67     0.277 C 
BRANCH  14  15
HETATM   15  N18   D T2602     169.158 161.725 144.095  1.00104.04     0.146 N 
HETATM   16  C19   D T2602     167.867 161.498 144.023  1.00107.77     0.286 C 
HETATM   17  C20   D T2602     166.975 162.745 143.911  1.00107.78     0.286 C 
HETATM   18  N21   D T2602     167.608 163.776 144.431  1.00106.92     0.143 N 
HETATM   19  C22   D T2602     168.646 164.043 143.670  1.00103.68     0.286 C 
HETATM   20  C24   D T2602     166.801 164.796 144.466  1.00105.81     0.285 C 
HETATM   21  C23   D T2602     169.574 162.831 143.545  1.00104.89     0.286 C 
ENDBRANCH  14  15
ENDBRANCH   7  14
ENDBRANCH   1   4
BRANCH   2  22
HETATM   22  C05   D T2602     173.158 155.167 148.718  1.00 96.97     0.059 A 
HETATM   23  C04   D T2602     172.451 155.117 149.909  1.00 99.17     0.013 A 
HETATM   24  C03   D T2602     172.831 154.235 150.901  1.00 96.89     0.042 A 
HETATM   25  C02   D T2602     173.925 153.405 150.708  1.00 99.79     0.008 A 
HETATM   26  C07   D T2602     174.632 153.459 149.519  1.00100.07     0.001 A 
HETATM   27  C06   D T2602     174.251 154.342 148.520  1.00100.96     0.005 A 
BRANCH  24  28
HETATM   28  C29   D T2602     172.047 154.173 152.218  1.00 99.16    -0.059 C 
HETATM   29  C30   D T2602     171.448 154.120 153.251  1.00101.30    -0.058 C 
BRANCH  29  30
HETATM   30  C31   D T2602     170.691 154.062 154.589  1.00 99.24     0.061 A 
HETATM   31  C32   D T2602     170.975 154.936 155.619  1.00 99.88     0.015 A 
HETATM   32  C33   D T2602     170.277 154.816 156.742  1.00 95.59     0.059 A 
HETATM   33  C34   D T2602     169.261 153.834 156.902  1.00 97.44     0.185 A 
HETATM   34  C37   D T2602     170.208 155.457 158.029  1.00101.07     0.125 A 
HETATM   35  N35   D T2602     168.843 154.129 158.231  1.00 99.25    -0.129 NA
HETATM   36  N38   D T2602     168.941 152.971 155.948  1.00 99.75    -0.223 NA
HETATM   37  N36   D T2602     169.389 155.091 158.930  1.00101.72    -0.145 NA
HETATM   38  C39   D T2602     169.662 153.083 154.773  1.00 98.74     0.109 A 
ENDBRANCH  29  30
ENDBRANCH  24  28
ENDBRANCH   2  22
TORSDOF 7
ENDMDL
MODEL 9
REMARK VINA RESULT:    -6.838     13.057     17.889
REMARK INTER + INTRA:          -9.398
REMARK INTER:                  -8.555
REMARK INTRA:                  -0.843
REMARK UNBOUND:                 0.238
REMARK  7 active torsions:
REMARK  status: ('A' for Active; 'I' for Inactive)
REMARK    1  A    between atoms: C13_1  and  C25_21 
REMARK    2  A    between atoms: C17_3  and  C14_7 
REMARK    3  A    between atoms: C17_3  and  N18_33 
REMARK    4  A    between atoms: C11_5  and  N10_10 
REMARK       I    between atoms: N10_10  and  C08_17 
REMARK    5  A    between atoms: C03_12  and  C29_22 
REMARK    6  A    between atoms: C05_14  and  C08_17 
REMARK    7  A    between atoms: C30_23  and  C31_24 
ROOT
HETATM    1  N10   D T2602     191.934 168.778 163.198  1.00 94.57    -0.208 NA
HETATM    2  C08   D T2602     192.330 169.947 163.981  1.00 96.06     0.279 C 
HETATM    3  O09   D T2602     192.404 169.874 165.155  1.00 99.47    -0.265 OA
ENDROOT
BRANCH   1   4
HETATM    4  C11   D T2602     191.620 167.498 163.881  1.00 98.39     0.085 A 
HETATM    5  C12   D T2602     190.331 167.257 164.342  1.00102.66     0.023 A 
HETATM    6  C13   D T2602     189.983 166.056 164.994  1.00102.89     0.071 A 
HETATM    7  C14   D T2602     190.984 165.058 165.181  1.00103.19     0.015 A 
HETATM    8  C15   D T2602     192.270 165.320 164.705  1.00105.74    -0.001 A 
HETATM    9  C16   D T2602     192.591 166.525 164.062  1.00102.06     0.019 A 
BRANCH   6  10
HETATM   10  C25   D T2602     188.543 165.863 165.482  1.00102.82     0.419 C 
HETATM   11  F26   D T2602     188.552 165.770 166.839  1.00107.06    -0.166 F 
HETATM   12  F27   D T2602     187.779 166.931 165.124  1.00102.60    -0.166 F 
HETATM   13  F28   D T2602     188.020 164.717 164.962  1.00103.37    -0.166 F 
ENDBRANCH   6  10
BRANCH   7  14
HETATM   14  C17   D T2602     190.655 163.698 165.896  1.00100.67     0.277 C 
BRANCH  14  15
HETATM   15  N18   D T2602     190.985 162.670 165.118  1.00104.04     0.146 N 
HETATM   16  C19   D T2602     189.888 162.021 164.804  1.00107.77     0.286 C 
HETATM   17  C20   D T2602     190.053 160.515 164.548  1.00107.78     0.286 C 
HETATM   18  N21   D T2602     191.294 160.273 164.178  1.00106.92     0.143 N 
HETATM   19  C22   D T2602     192.079 160.522 165.202  1.00103.68     0.286 C 
HETATM   20  C24   D T2602     191.395 159.025 163.825  1.00105.81     0.285 C 
HETATM   21  C23   D T2602     191.920 161.964 165.691  1.00104.89     0.286 C 
ENDBRANCH  14  15
ENDBRANCH   7  14
ENDBRANCH   1   4
BRANCH   2  22
HETATM   22  C05   D T2602     192.647 171.287 163.280  1.00 96.97     0.059 A 
HETATM   23  C04   D T2602     192.704 171.327 161.895  1.00 99.17     0.013 A 
HETATM   24  C03   D T2602     192.989 172.515 161.251  1.00 96.89     0.042 A 
HETATM   25  C02   D T2602     193.225 173.664 161.989  1.00 99.79     0.008 A 
HETATM   26  C07   D T2602     193.170 173.622 163.372  1.00100.07     0.001 A 
HETATM   27  C06   D T2602     192.882 172.431 164.022  1.00100.96     0.005 A 
BRANCH  24  28
HETATM   28  C29   D T2602     193.048 172.564 159.718  1.00 99.16    -0.059 C 
HETATM   29  C30   D T2602     193.080 172.603 158.525  1.00101.30    -0.058 C 
BRANCH  29  30
HETATM   30  C31   D T2602     193.109 172.668 156.988  1.00 99.24     0.061 A 
HETATM   31  C32   D T2602     192.856 173.843 156.309  1.00 99.88     0.015 A 
HETATM   32  C33   D T2602     192.898 173.812 154.982  1.00 95.59     0.059 A 
HETATM   33  C34   D T2602     193.198 172.624 154.261  1.00 97.44     0.185 A 
HETATM   34  C37   D T2602     192.716 174.728 153.887  1.00101.07     0.125 A 
HETATM   35  N35   D T2602     193.121 173.120 152.928  1.00 99.25    -0.129 NA
HETATM   36  N38   D T2602     193.454 171.467 154.857  1.00 99.75    -0.223 NA
HETATM   37  N36   D T2602     192.835 174.371 152.673  1.00101.72    -0.145 NA
HETATM   38  C39   D T2602     193.411 171.485 156.239  1.00 98.74     0.109 A 
ENDBRANCH  29  30
ENDBRANCH  24  28
ENDBRANCH   2  22
TORSDOF 7
ENDMDL
