MODEL 1
REMARK VINA RESULT:    -8.654      0.000      0.000
REMARK INTER + INTRA:         -13.217
REMARK INTER:                 -12.195
REMARK INTRA:                  -1.021
REMARK UNBOUND:                -1.021
REMARK  7 active torsions:
REMARK  status: ('A' for Active; 'I' for Inactive)
REMARK    1  A    between atoms: C13_1  and  C25_22 
REMARK    2  A    between atoms: C17_3  and  C14_7 
REMARK    3  A    between atoms: C17_3  and  N18_34 
REMARK    4  A    between atoms: C11_5  and  N10_10 
REMARK       I    between atoms: N10_10  and  C08_18 
REMARK    5  A    between atoms: C03_13  and  C29_23 
REMARK    6  A    between atoms: C05_15  and  C08_18 
REMARK    7  A    between atoms: C30_24  and  C31_25 
ROOT
HETATM    1  N10   D T2602     292.497 233.386 267.213  1.00 89.48    -0.208 NA
HETATM    2  C08   D T2602     292.039 233.281 265.855  1.00 89.48     0.279 C 
HETATM    3  O09   D T2602     292.740 232.828 265.007  1.00 89.48    -0.265 OA
ENDROOT
BRANCH   2   4
HETATM    4  C05   D T2602     290.618 233.766 265.461  1.00 89.48     0.059 A 
HETATM    5  C04   D T2602     289.766 234.208 266.472  1.00 89.48     0.013 A 
HETATM    6  C03   D T2602     288.483 234.648 266.156  1.00 89.48     0.038 A 
HETATM    7  C02   D T2602     288.046 234.650 264.835  1.00 89.48    -0.014 A 
HETATM    8  C01   D T2602     286.610 235.147 264.511  1.00 89.48     0.032 C 
HETATM    9  C07   D T2602     288.895 234.210 263.825  1.00 89.48    -0.004 A 
HETATM   10  C06   D T2602     290.195 233.767 264.141  1.00 89.48     0.004 A 
BRANCH   6  11
HETATM   11  C29   D T2602     287.557 235.135 267.289  1.00 89.48    -0.060 C 
HETATM   12  C30   D T2602     286.866 235.523 268.188  1.00 89.48    -0.058 C 
BRANCH  12  13
HETATM   13  C31   D T2602     285.984 236.030 269.346  1.00 89.48     0.061 A 
HETATM   14  C32   D T2602     286.300 237.230 270.008  1.00 89.48     0.015 A 
HETATM   15  C33   D T2602     285.447 237.643 271.067  1.00 89.48     0.059 A 
HETATM   16  C34   D T2602     284.365 236.869 271.393  1.00 89.48     0.185 A 
HETATM   17  C37   D T2602     285.416 238.762 271.965  1.00 89.48     0.125 A 
HETATM   18  N35   D T2602     283.721 237.486 272.427  1.00 89.48    -0.129 NA
HETATM   19  N38   D T2602     284.093 235.716 270.726  1.00 89.48    -0.223 NA
HETATM   20  N36   D T2602     284.365 238.624 272.763  1.00 89.48    -0.145 NA
HETATM   21  C39   D T2602     284.859 235.291 269.734  1.00 89.48     0.109 A 
ENDBRANCH  12  13
ENDBRANCH   6  11
ENDBRANCH   2   4
BRANCH   1  22
HETATM   22  C11   D T2602     293.845 232.929 267.592  1.00 89.48     0.085 A 
HETATM   23  C12   D T2602     294.914 233.822 267.598  1.00 89.48     0.023 A 
HETATM   24  C13   D T2602     296.191 233.401 267.953  1.00 89.48     0.070 A 
HETATM   25  C14   D T2602     296.406 232.057 268.319  1.00 89.48    -0.002 A 
HETATM   26  C15   D T2602     295.333 231.169 268.319  1.00 89.48    -0.001 A 
HETATM   27  C16   D T2602     294.052 231.596 267.956  1.00 89.48     0.019 A 
BRANCH  24  28
HETATM   28  C25   D T2602     297.301 234.448 267.919  1.00 89.48     0.419 C 
HETATM   29  F26   D T2602     298.067 234.290 266.810  1.00 89.48    -0.166 F 
HETATM   30  F27   D T2602     296.718 235.684 267.872  1.00 89.48    -0.166 F 
HETATM   31  F28   D T2602     298.067 234.381 269.034  1.00 89.48    -0.166 F 
ENDBRANCH  24  28
BRANCH  25  32
HETATM   32  C17   D T2602     297.816 231.529 268.733  1.00 89.48     0.103 C 
BRANCH  32  33
HETATM   33  N18   D T2602     298.008 230.360 268.282  1.00 89.48    -0.245 NA
HETATM   34  C19   D T2602     298.634 229.608 269.252  1.00 89.48     0.060 C 
HETATM   35  C20   D T2602     299.072 228.238 268.732  1.00 89.48     0.059 C 
HETATM   36  N21   D T2602     299.803 228.340 267.565  1.00 89.48    -0.248 NA
HETATM   37  C22   D T2602     299.163 229.071 266.598  1.00 89.48     0.094 C 
HETATM   38  C24   D T2602     300.065 227.183 267.123  1.00 89.48     0.094 C 
HETATM   39  C23   D T2602     298.748 230.449 267.123  1.00 89.48     0.095 C 
ENDBRANCH  32  33
ENDBRANCH  25  32
ENDBRANCH   1  22
TORSDOF 7
ENDMDL
MODEL 2
REMARK VINA RESULT:    -8.430      1.290      1.828
REMARK INTER + INTRA:         -12.901
REMARK INTER:                 -11.828
REMARK INTRA:                  -1.073
REMARK UNBOUND:                -1.021
REMARK  7 active torsions:
REMARK  status: ('A' for Active; 'I' for Inactive)
REMARK    1  A    between atoms: C13_1  and  C25_22 
REMARK    2  A    between atoms: C17_3  and  C14_7 
REMARK    3  A    between atoms: C17_3  and  N18_34 
REMARK    4  A    between atoms: C11_5  and  N10_10 
REMARK       I    between atoms: N10_10  and  C08_18 
REMARK    5  A    between atoms: C03_13  and  C29_23 
REMARK    6  A    between atoms: C05_15  and  C08_18 
REMARK    7  A    between atoms: C30_24  and  C31_25 
ROOT
HETATM    1  N10   D T2602     292.636 233.327 267.410  1.00 89.48    -0.208 NA
HETATM    2  C08   D T2602     292.241 233.331 266.029  1.00 89.48     0.279 C 
HETATM    3  O09   D T2602     293.021 233.074 265.168  1.00 89.48    -0.265 OA
ENDROOT
BRANCH   2   4
HETATM    4  C05   D T2602     290.782 233.682 265.626  1.00 89.48     0.059 A 
HETATM    5  C04   D T2602     289.926 234.178 266.607  1.00 89.48     0.013 A 
HETATM    6  C03   D T2602     288.611 234.502 266.283  1.00 89.48     0.038 A 
HETATM    7  C02   D T2602     288.146 234.333 264.982  1.00 89.48    -0.014 A 
HETATM    8  C01   D T2602     286.674 234.702 264.648  1.00 89.48     0.032 C 
HETATM    9  C07   D T2602     288.999 233.839 264.001  1.00 89.48    -0.004 A 
HETATM   10  C06   D T2602     290.331 233.513 264.326  1.00 89.48     0.004 A 
BRANCH   6  11
HETATM   11  C29   D T2602     287.681 235.051 267.384  1.00 89.48    -0.060 C 
HETATM   12  C30   D T2602     286.986 235.478 268.262  1.00 89.48    -0.058 C 
BRANCH  12  13
HETATM   13  C31   D T2602     286.099 236.032 269.394  1.00 89.48     0.061 A 
HETATM   14  C32   D T2602     286.458 237.216 270.063  1.00 89.48     0.015 A 
HETATM   15  C33   D T2602     285.598 237.674 271.098  1.00 89.48     0.059 A 
HETATM   16  C34   D T2602     284.470 236.958 271.395  1.00 89.48     0.185 A 
HETATM   17  C37   D T2602     285.599 238.796 271.994  1.00 89.48     0.125 A 
HETATM   18  N35   D T2602     283.830 237.609 272.411  1.00 89.48    -0.129 NA
HETATM   19  N38   D T2602     284.157 235.818 270.723  1.00 89.48    -0.223 NA
HETATM   20  N36   D T2602     284.522 238.713 272.763  1.00 89.48    -0.145 NA
HETATM   21  C39   D T2602     284.928 235.352 269.752  1.00 89.48     0.109 A 
ENDBRANCH  12  13
ENDBRANCH   6  11
ENDBRANCH   2   4
BRANCH   1  22
HETATM   22  C11   D T2602     294.018 232.996 267.797  1.00 89.48     0.085 A 
HETATM   23  C12   D T2602     294.995 233.989 267.833  1.00 89.48     0.023 A 
HETATM   24  C13   D T2602     296.303 233.688 268.196  1.00 89.48     0.070 A 
HETATM   25  C14   D T2602     296.645 232.365 268.541  1.00 89.48    -0.002 A 
HETATM   26  C15   D T2602     295.663 231.376 268.511  1.00 89.48    -0.001 A 
HETATM   27  C16   D T2602     294.351 231.683 268.140  1.00 89.48     0.019 A 
BRANCH  24  28
HETATM   28  C25   D T2602     297.306 234.839 268.194  1.00 89.48     0.419 C 
HETATM   29  F26   D T2602     298.125 234.751 267.117  1.00 89.48    -0.166 F 
HETATM   30  F27   D T2602     296.607 236.011 268.115  1.00 89.48    -0.166 F 
HETATM   31  F28   D T2602     298.031 234.852 269.339  1.00 89.48    -0.166 F 
ENDBRANCH  24  28
BRANCH  25  32
HETATM   32  C17   D T2602     298.095 231.969 268.962  1.00 89.48     0.103 C 
BRANCH  32  33
HETATM   33  N18   D T2602     298.075 231.202 269.971  1.00 89.48    -0.245 NA
HETATM   34  C19   D T2602     298.315 231.951 271.103  1.00 89.48     0.060 C 
HETATM   35  C20   D T2602     298.495 231.082 272.347  1.00 89.48     0.059 C 
HETATM   36  N21   D T2602     299.426 230.083 272.148  1.00 89.48    -0.248 NA
HETATM   37  C22   D T2602     299.168 229.328 271.033  1.00 89.48     0.094 C 
HETATM   38  C24   D T2602     299.476 229.335 273.169  1.00 89.48     0.094 C 
HETATM   39  C23   D T2602     299.012 230.208 269.789  1.00 89.48     0.095 C 
ENDBRANCH  32  33
ENDBRANCH  25  32
ENDBRANCH   1  22
TORSDOF 7
ENDMDL
MODEL 3
REMARK VINA RESULT:    -8.224      2.386      2.979
REMARK INTER + INTRA:         -12.612
REMARK INTER:                 -12.585
REMARK INTRA:                  -0.027
REMARK UNBOUND:                -1.021
REMARK  7 active torsions:
REMARK  status: ('A' for Active; 'I' for Inactive)
REMARK    1  A    between atoms: C13_1  and  C25_22 
REMARK    2  A    between atoms: C17_3  and  C14_7 
REMARK    3  A    between atoms: C17_3  and  N18_34 
REMARK    4  A    between atoms: C11_5  and  N10_10 
REMARK       I    between atoms: N10_10  and  C08_18 
REMARK    5  A    between atoms: C03_13  and  C29_23 
REMARK    6  A    between atoms: C05_15  and  C08_18 
REMARK    7  A    between atoms: C30_24  and  C31_25 
ROOT
HETATM    1  N10   D T2602     293.336 233.841 267.722  1.00 89.48    -0.208 NA
HETATM    2  C08   D T2602     292.909 233.972 266.357  1.00 89.48     0.279 C 
HETATM    3  O09   D T2602     293.695 234.180 265.487  1.00 89.48    -0.265 OA
ENDROOT
BRANCH   2   4
HETATM    4  C05   D T2602     291.406 233.853 265.984  1.00 89.48     0.059 A 
HETATM    5  C04   D T2602     290.462 234.349 266.881  1.00 89.48     0.013 A 
HETATM    6  C03   D T2602     289.105 234.259 266.582  1.00 89.48     0.038 A 
HETATM    7  C02   D T2602     288.686 233.676 265.389  1.00 89.48    -0.014 A 
HETATM    8  C01   D T2602     287.165 233.588 265.081  1.00 89.48     0.032 C 
HETATM    9  C07   D T2602     289.626 233.181 264.493  1.00 89.48    -0.004 A 
HETATM   10  C06   D T2602     291.000 233.275 264.792  1.00 89.48     0.004 A 
BRANCH   6  11
HETATM   11  C29   D T2602     288.076 234.815 267.587  1.00 89.48    -0.060 C 
HETATM   12  C30   D T2602     287.291 235.226 268.394  1.00 89.48    -0.058 C 
BRANCH  12  13
HETATM   13  C31   D T2602     286.287 235.754 269.438  1.00 89.48     0.061 A 
HETATM   14  C32   D T2602     286.600 236.883 270.216  1.00 89.48     0.015 A 
HETATM   15  C33   D T2602     285.632 237.320 271.161  1.00 89.48     0.059 A 
HETATM   16  C34   D T2602     284.451 236.636 271.272  1.00 89.48     0.185 A 
HETATM   17  C37   D T2602     285.559 238.390 272.115  1.00 89.48     0.125 A 
HETATM   18  N35   D T2602     283.711 237.257 272.238  1.00 89.48    -0.129 NA
HETATM   19  N38   D T2602     284.187 235.549 270.500  1.00 89.48    -0.223 NA
HETATM   20  N36   D T2602     284.391 238.311 272.738  1.00 89.48    -0.145 NA
HETATM   21  C39   D T2602     285.058 235.105 269.607  1.00 89.48     0.109 A 
ENDBRANCH  12  13
ENDBRANCH   6  11
ENDBRANCH   2   4
BRANCH   1  22
HETATM   22  C11   D T2602     294.761 233.954 268.081  1.00 89.48     0.085 A 
HETATM   23  C12   D T2602     295.297 235.186 268.448  1.00 89.48     0.023 A 
HETATM   24  C13   D T2602     296.641 235.304 268.788  1.00 89.48     0.070 A 
HETATM   25  C14   D T2602     297.468 234.163 268.768  1.00 89.48    -0.002 A 
HETATM   26  C15   D T2602     296.926 232.931 268.407  1.00 89.48    -0.001 A 
HETATM   27  C16   D T2602     295.576 232.819 268.062  1.00 89.48     0.019 A 
BRANCH  24  28
HETATM   28  C25   D T2602     297.141 236.695 269.165  1.00 89.48     0.419 C 
HETATM   29  F26   D T2602     297.944 237.190 268.190  1.00 89.48    -0.166 F 
HETATM   30  F27   D T2602     296.055 237.516 269.294  1.00 89.48    -0.166 F 
HETATM   31  F28   D T2602     297.798 236.670 270.350  1.00 89.48    -0.166 F 
ENDBRANCH  24  28
BRANCH  25  32
HETATM   32  C17   D T2602     298.982 234.234 269.146  1.00 89.48     0.103 C 
BRANCH  32  33
HETATM   33  N18   D T2602     299.708 234.053 268.123  1.00 89.48    -0.245 NA
HETATM   34  C19   D T2602     300.789 234.906 268.189  1.00 89.48     0.060 C 
HETATM   35  C20   D T2602     301.621 234.889 266.907  1.00 89.48     0.059 C 
HETATM   36  N21   D T2602     300.842 235.083 265.785  1.00 89.48    -0.248 NA
HETATM   37  C22   D T2602     299.783 234.216 265.714  1.00 89.48     0.094 C 
HETATM   38  C24   D T2602     301.556 234.971 264.745  1.00 89.48     0.094 C 
HETATM   39  C23   D T2602     298.943 234.257 266.995  1.00 89.48     0.095 C 
ENDBRANCH  32  33
ENDBRANCH  25  32
ENDBRANCH   1  22
TORSDOF 7
ENDMDL
MODEL 4
REMARK VINA RESULT:    -8.129      2.048      2.641
REMARK INTER + INTRA:         -12.476
REMARK INTER:                 -11.361
REMARK INTRA:                  -1.116
REMARK UNBOUND:                -1.021
REMARK  7 active torsions:
REMARK  status: ('A' for Active; 'I' for Inactive)
REMARK    1  A    between atoms: C13_1  and  C25_22 
REMARK    2  A    between atoms: C17_3  and  C14_7 
REMARK    3  A    between atoms: C17_3  and  N18_34 
REMARK    4  A    between atoms: C11_5  and  N10_10 
REMARK       I    between atoms: N10_10  and  C08_18 
REMARK    5  A    between atoms: C03_13  and  C29_23 
REMARK    6  A    between atoms: C05_15  and  C08_18 
REMARK    7  A    between atoms: C30_24  and  C31_25 
ROOT
HETATM    1  N10   D T2602     293.299 233.702 267.453  1.00 89.48    -0.208 NA
HETATM    2  C08   D T2602     293.012 233.811 266.050  1.00 89.48     0.279 C 
HETATM    3  O09   D T2602     293.889 233.825 265.245  1.00 89.48    -0.265 OA
ENDROOT
BRANCH   2   4
HETATM    4  C05   D T2602     291.546 233.924 265.549  1.00 89.48     0.059 A 
HETATM    5  C04   D T2602     290.612 234.549 266.374  1.00 89.48     0.013 A 
HETATM    6  C03   D T2602     289.288 234.667 265.960  1.00 89.48     0.038 A 
HETATM    7  C02   D T2602     288.891 234.163 264.724  1.00 89.48    -0.014 A 
HETATM    8  C01   D T2602     287.407 234.307 264.287  1.00 89.48     0.032 C 
HETATM    9  C07   D T2602     289.821 233.539 263.900  1.00 89.48    -0.004 A 
HETATM   10  C06   D T2602     291.163 233.422 264.316  1.00 89.48     0.004 A 
BRANCH   6  11
HETATM   11  C29   D T2602     288.271 235.363 266.886  1.00 89.48    -0.060 C 
HETATM   12  C30   D T2602     287.500 235.894 267.635  1.00 89.48    -0.058 C 
BRANCH  12  13
HETATM   13  C31   D T2602     286.516 236.579 268.603  1.00 89.48     0.061 A 
HETATM   14  C32   D T2602     285.805 235.819 269.550  1.00 89.48     0.015 A 
HETATM   15  C33   D T2602     284.913 236.510 270.414  1.00 89.48     0.059 A 
HETATM   16  C34   D T2602     284.786 237.868 270.294  1.00 89.48     0.185 A 
HETATM   17  C37   D T2602     284.032 236.124 271.479  1.00 89.48     0.125 A 
HETATM   18  N35   D T2602     283.880 238.275 271.231  1.00 89.48    -0.129 NA
HETATM   19  N38   D T2602     285.493 238.567 269.366  1.00 89.48    -0.223 NA
HETATM   20  N36   D T2602     283.433 237.215 271.937  1.00 89.48    -0.145 NA
HETATM   21  C39   D T2602     286.335 237.966 268.540  1.00 89.48     0.109 A 
ENDBRANCH  12  13
ENDBRANCH   6  11
ENDBRANCH   2   4
BRANCH   1  22
HETATM   22  C11   D T2602     294.688 233.596 267.933  1.00 89.48     0.085 A 
HETATM   23  C12   D T2602     295.450 234.744 268.135  1.00 89.48     0.023 A 
HETATM   24  C13   D T2602     296.763 234.656 268.587  1.00 89.48     0.070 A 
HETATM   25  C14   D T2602     297.327 233.392 268.851  1.00 89.48    -0.002 A 
HETATM   26  C15   D T2602     296.558 232.246 268.654  1.00 89.48    -0.001 A 
HETATM   27  C16   D T2602     295.241 232.340 268.195  1.00 89.48     0.019 A 
BRANCH  24  28
HETATM   28  C25   D T2602     297.523 235.967 268.768  1.00 89.48     0.419 C 
HETATM   29  F26   D T2602     298.520 236.066 267.854  1.00 89.48    -0.166 F 
HETATM   30  F27   D T2602     296.647 236.997 268.570  1.00 89.48    -0.166 F 
HETATM   31  F28   D T2602     298.023 236.069 270.024  1.00 89.48    -0.166 F 
ENDBRANCH  24  28
BRANCH  25  32
HETATM   32  C17   D T2602     298.792 233.232 269.365  1.00 89.48     0.103 C 
BRANCH  32  33
HETATM   33  N18   D T2602     298.848 232.382 270.303  1.00 89.48    -0.245 NA
HETATM   34  C19   D T2602     298.752 233.043 271.508  1.00 89.48     0.060 C 
HETATM   35  C20   D T2602     298.997 232.118 272.700  1.00 89.48     0.059 C 
HETATM   36  N21   D T2602     300.169 231.402 272.564  1.00 89.48    -0.248 NA
HETATM   37  C22   D T2602     300.247 230.728 271.373  1.00 89.48     0.094 C 
HETATM   38  C24   D T2602     300.285 230.586 273.526  1.00 89.48     0.094 C 
HETATM   39  C23   D T2602     300.022 231.669 270.185  1.00 89.48     0.095 C 
ENDBRANCH  32  33
ENDBRANCH  25  32
ENDBRANCH   1  22
TORSDOF 7
ENDMDL
MODEL 5
REMARK VINA RESULT:    -8.057      4.184     12.894
REMARK INTER + INTRA:         -12.376
REMARK INTER:                 -11.255
REMARK INTRA:                  -1.121
REMARK UNBOUND:                -1.021
REMARK  7 active torsions:
REMARK  status: ('A' for Active; 'I' for Inactive)
REMARK    1  A    between atoms: C13_1  and  C25_22 
REMARK    2  A    between atoms: C17_3  and  C14_7 
REMARK    3  A    between atoms: C17_3  and  N18_34 
REMARK    4  A    between atoms: C11_5  and  N10_10 
REMARK       I    between atoms: N10_10  and  C08_18 
REMARK    5  A    between atoms: C03_13  and  C29_23 
REMARK    6  A    between atoms: C05_15  and  C08_18 
REMARK    7  A    between atoms: C30_24  and  C31_25 
ROOT
HETATM    1  N10   D T2602     292.939 234.107 269.066  1.00 89.48    -0.208 NA
HETATM    2  C08   D T2602     293.786 235.266 269.121  1.00 89.48     0.279 C 
HETATM    3  O09   D T2602     293.329 236.362 269.043  1.00 89.48    -0.265 OA
ENDROOT
BRANCH   2   4
HETATM    4  C05   D T2602     295.324 235.114 269.273  1.00 89.48     0.059 A 
HETATM    5  C04   D T2602     296.074 234.806 268.139  1.00 89.48     0.013 A 
HETATM    6  C03   D T2602     297.455 234.661 268.237  1.00 89.48     0.038 A 
HETATM    7  C02   D T2602     298.093 234.822 269.464  1.00 89.48    -0.014 A 
HETATM    8  C01   D T2602     299.635 234.654 269.545  1.00 89.48     0.032 C 
HETATM    9  C07   D T2602     297.347 235.130 270.597  1.00 89.48    -0.004 A 
HETATM   10  C06   D T2602     295.949 235.281 270.499  1.00 89.48     0.004 A 
BRANCH   6  11
HETATM   11  C29   D T2602     298.266 234.322 266.970  1.00 89.48    -0.060 C 
HETATM   12  C30   D T2602     298.871 234.034 265.977  1.00 89.48    -0.058 C 
BRANCH  12  13
HETATM   13  C31   D T2602     299.642 233.663 264.694  1.00 89.48     0.061 A 
HETATM   14  C32   D T2602     299.014 232.919 263.678  1.00 89.48     0.015 A 
HETATM   15  C33   D T2602     299.778 232.609 262.521  1.00 89.48     0.059 A 
HETATM   16  C34   D T2602     301.074 233.043 262.441  1.00 89.48     0.185 A 
HETATM   17  C37   D T2602     299.524 231.899 261.300  1.00 89.48     0.125 A 
HETATM   18  N35   D T2602     301.572 232.617 261.243  1.00 89.48    -0.129 NA
HETATM   19  N38   D T2602     301.644 233.762 263.445  1.00 89.48    -0.223 NA
HETATM   20  N36   D T2602     300.629 231.928 260.566  1.00 89.48    -0.145 NA
HETATM   21  C39   D T2602     300.971 234.073 264.542  1.00 89.48     0.109 A 
ENDBRANCH  12  13
ENDBRANCH   6  11
ENDBRANCH   2   4
BRANCH   1  22
HETATM   22  C11   D T2602     291.480 234.245 268.921  1.00 89.48     0.085 A 
HETATM   23  C12   D T2602     290.900 234.278 267.654  1.00 89.48     0.023 A 
HETATM   24  C13   D T2602     289.524 234.409 267.505  1.00 89.48     0.070 A 
HETATM   25  C14   D T2602     288.703 234.503 268.648  1.00 89.48    -0.002 A 
HETATM   26  C15   D T2602     289.287 234.462 269.913  1.00 89.48    -0.001 A 
HETATM   27  C16   D T2602     290.672 234.335 270.057  1.00 89.48     0.019 A 
BRANCH  24  28
HETATM   28  C25   D T2602     288.981 234.446 266.079  1.00 89.48     0.419 C 
HETATM   29  F26   D T2602     288.361 235.629 265.840  1.00 89.48    -0.166 F 
HETATM   30  F27   D T2602     290.037 234.327 265.220  1.00 89.48    -0.166 F 
HETATM   31  F28   D T2602     288.132 233.415 265.855  1.00 89.48    -0.166 F 
ENDBRANCH  24  28
BRANCH  25  32
HETATM   32  C17   D T2602     287.153 234.645 268.542  1.00 89.48     0.103 C 
BRANCH  32  33
HETATM   33  N18   D T2602     286.733 235.565 269.306  1.00 89.48    -0.245 NA
HETATM   34  C19   D T2602     285.439 235.275 269.682  1.00 89.48     0.060 C 
HETATM   35  C20   D T2602     284.787 236.422 270.453  1.00 89.48     0.059 C 
HETATM   36  N21   D T2602     284.904 237.624 269.785  1.00 89.48    -0.248 NA
HETATM   37  C22   D T2602     286.197 237.917 269.436  1.00 89.48     0.094 C 
HETATM   38  C24   D T2602     284.433 238.558 270.500  1.00 89.48     0.094 C 
HETATM   39  C23   D T2602     286.832 236.770 268.644  1.00 89.48     0.095 C 
ENDBRANCH  32  33
ENDBRANCH  25  32
ENDBRANCH   1  22
TORSDOF 7
ENDMDL
MODEL 6
REMARK VINA RESULT:    -7.978      2.810      4.082
REMARK INTER + INTRA:         -12.264
REMARK INTER:                 -11.124
REMARK INTRA:                  -1.140
REMARK UNBOUND:                -1.021
REMARK  7 active torsions:
REMARK  status: ('A' for Active; 'I' for Inactive)
REMARK    1  A    between atoms: C13_1  and  C25_22 
REMARK    2  A    between atoms: C17_3  and  C14_7 
REMARK    3  A    between atoms: C17_3  and  N18_34 
REMARK    4  A    between atoms: C11_5  and  N10_10 
REMARK       I    between atoms: N10_10  and  C08_18 
REMARK    5  A    between atoms: C03_13  and  C29_23 
REMARK    6  A    between atoms: C05_15  and  C08_18 
REMARK    7  A    between atoms: C30_24  and  C31_25 
ROOT
HETATM    1  N10   D T2602     294.017 234.456 267.230  1.00 89.48    -0.208 NA
HETATM    2  C08   D T2602     293.239 233.300 266.881  1.00 89.48     0.279 C 
HETATM    3  O09   D T2602     293.651 232.202 267.084  1.00 89.48    -0.265 OA
ENDROOT
BRANCH   2   4
HETATM    4  C05   D T2602     291.843 233.457 266.219  1.00 89.48     0.059 A 
HETATM    5  C04   D T2602     290.847 234.125 266.928  1.00 89.48     0.013 A 
HETATM    6  C03   D T2602     289.582 234.284 266.368  1.00 89.48     0.038 A 
HETATM    7  C02   D T2602     289.307 233.778 265.100  1.00 89.48    -0.014 A 
HETATM    8  C01   D T2602     287.887 233.968 264.499  1.00 89.48     0.032 C 
HETATM    9  C07   D T2602     290.300 233.111 264.391  1.00 89.48    -0.004 A 
HETATM   10  C06   D T2602     291.582 232.952 264.955  1.00 89.48     0.004 A 
BRANCH   6  11
HETATM   11  C29   D T2602     288.495 235.028 267.168  1.00 89.48    -0.060 C 
HETATM   12  C30   D T2602     287.671 235.606 267.819  1.00 89.48    -0.058 C 
BRANCH  12  13
HETATM   13  C31   D T2602     286.618 236.355 268.660  1.00 89.48     0.061 A 
HETATM   14  C32   D T2602     285.858 235.666 269.623  1.00 89.48     0.015 A 
HETATM   15  C33   D T2602     284.904 236.413 270.366  1.00 89.48     0.059 A 
HETATM   16  C34   D T2602     284.768 237.753 270.121  1.00 89.48     0.185 A 
HETATM   17  C37   D T2602     283.961 236.104 271.404  1.00 89.48     0.125 A 
HETATM   18  N35   D T2602     283.799 238.223 270.961  1.00 89.48    -0.129 NA
HETATM   19  N38   D T2602     285.524 238.382 269.182  1.00 89.48    -0.223 NA
HETATM   20  N36   D T2602     283.321 237.220 271.727  1.00 89.48    -0.145 NA
HETATM   21  C39   D T2602     286.424 237.727 268.466  1.00 89.48     0.109 A 
ENDBRANCH  12  13
ENDBRANCH   6  11
ENDBRANCH   2   4
BRANCH   1  22
HETATM   22  C11   D T2602     295.342 234.312 267.857  1.00 89.48     0.085 A 
HETATM   23  C12   D T2602     296.484 234.200 267.067  1.00 89.48     0.023 A 
HETATM   24  C13   D T2602     297.741 234.063 267.649  1.00 89.48     0.070 A 
HETATM   25  C14   D T2602     297.862 234.046 269.053  1.00 89.48    -0.002 A 
HETATM   26  C15   D T2602     296.718 234.167 269.839  1.00 89.48    -0.001 A 
HETATM   27  C16   D T2602     295.457 234.299 269.249  1.00 89.48     0.019 A 
BRANCH  24  28
HETATM   28  C25   D T2602     298.932 233.934 266.703  1.00 89.48     0.419 C 
HETATM   29  F26   D T2602     299.550 232.740 266.881  1.00 89.48    -0.166 F 
HETATM   30  F27   D T2602     298.464 233.995 265.420  1.00 89.48    -0.166 F 
HETATM   31  F28   D T2602     299.809 234.951 266.885  1.00 89.48    -0.166 F 
ENDBRANCH  24  28
BRANCH  25  32
HETATM   32  C17   D T2602     299.246 233.901 269.760  1.00 89.48     0.103 C 
BRANCH  32  33
HETATM   33  N18   D T2602     299.422 234.836 270.597  1.00 89.48    -0.245 NA
HETATM   34  C19   D T2602     300.149 235.840 269.994  1.00 89.48     0.060 C 
HETATM   35  C20   D T2602     300.570 236.928 270.983  1.00 89.48     0.059 C 
HETATM   36  N21   D T2602     301.190 236.399 272.096  1.00 89.48    -0.248 NA
HETATM   37  C22   D T2602     300.450 235.417 272.704  1.00 89.48     0.094 C 
HETATM   38  C24   D T2602     301.438 237.323 272.927  1.00 89.48     0.094 C 
HETATM   39  C23   D T2602     300.054 234.323 271.709  1.00 89.48     0.095 C 
ENDBRANCH  32  33
ENDBRANCH  25  32
ENDBRANCH   1  22
TORSDOF 7
ENDMDL
MODEL 7
REMARK VINA RESULT:    -7.855      3.980     12.143
REMARK INTER + INTRA:         -12.092
REMARK INTER:                 -11.061
REMARK INTRA:                  -1.030
REMARK UNBOUND:                -1.021
REMARK  7 active torsions:
REMARK  status: ('A' for Active; 'I' for Inactive)
REMARK    1  A    between atoms: C13_1  and  C25_22 
REMARK    2  A    between atoms: C17_3  and  C14_7 
REMARK    3  A    between atoms: C17_3  and  N18_34 
REMARK    4  A    between atoms: C11_5  and  N10_10 
REMARK       I    between atoms: N10_10  and  C08_18 
REMARK    5  A    between atoms: C03_13  and  C29_23 
REMARK    6  A    between atoms: C05_15  and  C08_18 
REMARK    7  A    between atoms: C30_24  and  C31_25 
ROOT
HETATM    1  N10   D T2602     292.315 233.067 268.075  1.00 89.48    -0.208 NA
HETATM    2  C08   D T2602     293.378 234.026 267.963  1.00 89.48     0.279 C 
HETATM    3  O09   D T2602     293.146 235.180 267.789  1.00 89.48    -0.265 OA
ENDROOT
BRANCH   2   4
HETATM    4  C05   D T2602     294.862 233.576 268.056  1.00 89.48     0.059 A 
HETATM    5  C04   D T2602     295.179 232.518 268.906  1.00 89.48     0.013 A 
HETATM    6  C03   D T2602     296.498 232.087 269.017  1.00 89.48     0.038 A 
HETATM    7  C02   D T2602     297.504 232.709 268.282  1.00 89.48    -0.014 A 
HETATM    8  C01   D T2602     298.968 232.208 268.426  1.00 89.48     0.032 C 
HETATM    9  C07   D T2602     297.190 233.764 267.433  1.00 89.48    -0.004 A 
HETATM   10  C06   D T2602     295.854 234.199 267.317  1.00 89.48     0.004 A 
BRANCH   6  11
HETATM   11  C29   D T2602     296.828 230.914 269.962  1.00 89.48    -0.060 C 
HETATM   12  C30   D T2602     297.049 229.997 270.702  1.00 89.48    -0.058 C 
BRANCH  12  13
HETATM   13  C31   D T2602     297.325 228.814 271.649  1.00 89.48     0.061 A 
HETATM   14  C32   D T2602     296.915 228.868 272.994  1.00 89.48     0.015 A 
HETATM   15  C33   D T2602     297.199 227.744 273.816  1.00 89.48     0.059 A 
HETATM   16  C34   D T2602     297.848 226.668 273.274  1.00 89.48     0.185 A 
HETATM   17  C37   D T2602     296.959 227.409 275.191  1.00 89.48     0.125 A 
HETATM   18  N35   D T2602     297.993 225.739 274.264  1.00 89.48    -0.129 NA
HETATM   19  N38   D T2602     298.228 226.654 271.968  1.00 89.48    -0.223 NA
HETATM   20  N36   D T2602     297.454 226.199 275.414  1.00 89.48    -0.145 NA
HETATM   21  C39   D T2602     297.985 227.678 271.165  1.00 89.48     0.109 A 
ENDBRANCH  12  13
ENDBRANCH   6  11
ENDBRANCH   2   4
BRANCH   1  22
HETATM   22  C11   D T2602     290.906 233.489 267.986  1.00 89.48     0.085 A 
HETATM   23  C12   D T2602     290.246 233.479 266.759  1.00 89.48     0.023 A 
HETATM   24  C13   D T2602     288.917 233.876 266.663  1.00 89.48     0.070 A 
HETATM   25  C14   D T2602     288.225 234.287 267.821  1.00 89.48    -0.002 A 
HETATM   26  C15   D T2602     288.888 234.288 269.047  1.00 89.48    -0.001 A 
HETATM   27  C16   D T2602     290.225 233.893 269.137  1.00 89.48     0.019 A 
BRANCH  24  28
HETATM   28  C25   D T2602     288.281 233.843 265.276  1.00 89.48     0.419 C 
HETATM   29  F26   D T2602     287.184 233.045 265.277  1.00 89.48    -0.166 F 
HETATM   30  F27   D T2602     287.894 235.114 264.956  1.00 89.48    -0.166 F 
HETATM   31  F28   D T2602     289.171 233.421 264.344  1.00 89.48    -0.166 F 
ENDBRANCH  24  28
BRANCH  25  32
HETATM   32  C17   D T2602     286.732 234.737 267.775  1.00 89.48     0.103 C 
BRANCH  32  33
HETATM   33  N18   D T2602     286.505 235.629 268.646  1.00 89.48    -0.245 NA
HETATM   34  C19   D T2602     285.353 235.300 269.329  1.00 89.48     0.060 C 
HETATM   35  C20   D T2602     284.900 236.414 270.273  1.00 89.48     0.059 C 
HETATM   36  N21   D T2602     284.823 237.633 269.632  1.00 89.48    -0.248 NA
HETATM   37  C22   D T2602     285.980 237.964 268.975  1.00 89.48     0.094 C 
HETATM   38  C24   D T2602     284.533 238.539 270.469  1.00 89.48     0.094 C 
HETATM   39  C23   D T2602     286.413 236.851 268.015  1.00 89.48     0.095 C 
ENDBRANCH  32  33
ENDBRANCH  25  32
ENDBRANCH   1  22
TORSDOF 7
ENDMDL
MODEL 8
REMARK VINA RESULT:    -7.843      3.095     12.738
REMARK INTER + INTRA:         -12.073
REMARK INTER:                 -10.986
REMARK INTRA:                  -1.087
REMARK UNBOUND:                -1.021
REMARK  7 active torsions:
REMARK  status: ('A' for Active; 'I' for Inactive)
REMARK    1  A    between atoms: C13_1  and  C25_22 
REMARK    2  A    between atoms: C17_3  and  C14_7 
REMARK    3  A    between atoms: C17_3  and  N18_34 
REMARK    4  A    between atoms: C11_5  and  N10_10 
REMARK       I    between atoms: N10_10  and  C08_18 
REMARK    5  A    between atoms: C03_13  and  C29_23 
REMARK    6  A    between atoms: C05_15  and  C08_18 
REMARK    7  A    between atoms: C30_24  and  C31_25 
ROOT
HETATM    1  N10   D T2602     292.694 234.130 268.370  1.00 89.48    -0.208 NA
HETATM    2  C08   D T2602     293.546 235.250 268.658  1.00 89.48     0.279 C 
HETATM    3  O09   D T2602     293.088 236.323 268.891  1.00 89.48    -0.265 OA
ENDROOT
BRANCH   2   4
HETATM    4  C05   D T2602     295.090 235.087 268.662  1.00 89.48     0.059 A 
HETATM    5  C04   D T2602     295.623 233.825 268.404  1.00 89.48     0.013 A 
HETATM    6  C03   D T2602     297.003 233.640 268.401  1.00 89.48     0.038 A 
HETATM    7  C02   D T2602     297.855 234.711 268.654  1.00 89.48    -0.014 A 
HETATM    8  C01   D T2602     299.391 234.477 268.645  1.00 89.48     0.032 C 
HETATM    9  C07   D T2602     297.326 235.971 268.911  1.00 89.48    -0.004 A 
HETATM   10  C06   D T2602     295.930 236.161 268.911  1.00 89.48     0.004 A 
BRANCH   6  11
HETATM   11  C29   D T2602     297.571 232.236 268.112  1.00 89.48    -0.060 C 
HETATM   12  C30   D T2602     297.981 231.131 267.896  1.00 89.48    -0.058 C 
BRANCH  12  13
HETATM   13  C31   D T2602     298.500 229.707 267.615  1.00 89.48     0.061 A 
HETATM   14  C32   D T2602     298.922 229.346 266.323  1.00 89.48     0.015 A 
HETATM   15  C33   D T2602     299.390 228.018 266.129  1.00 89.48     0.059 A 
HETATM   16  C34   D T2602     299.415 227.157 267.194  1.00 89.48     0.185 A 
HETATM   17  C37   D T2602     299.893 227.275 265.009  1.00 89.48     0.125 A 
HETATM   18  N35   D T2602     299.902 225.965 266.741  1.00 89.48    -0.129 NA
HETATM   19  N38   D T2602     298.999 227.546 268.429  1.00 89.48    -0.223 NA
HETATM   20  N36   D T2602     300.185 226.049 265.423  1.00 89.48    -0.145 NA
HETATM   21  C39   D T2602     298.555 228.772 268.656  1.00 89.48     0.109 A 
ENDBRANCH  12  13
ENDBRANCH   6  11
ENDBRANCH   2   4
BRANCH   1  22
HETATM   22  C11   D T2602     291.228 234.280 268.363  1.00 89.48     0.085 A 
HETATM   23  C12   D T2602     290.529 234.294 267.159  1.00 89.48     0.023 A 
HETATM   24  C13   D T2602     289.145 234.436 267.141  1.00 89.48     0.070 A 
HETATM   25  C14   D T2602     288.440 234.558 268.355  1.00 89.48    -0.002 A 
HETATM   26  C15   D T2602     289.143 234.535 269.559  1.00 89.48    -0.001 A 
HETATM   27  C16   D T2602     290.534 234.398 269.571  1.00 89.48     0.019 A 
BRANCH  24  28
HETATM   28  C25   D T2602     288.467 234.453 265.774  1.00 89.48     0.419 C 
HETATM   29  F26   D T2602     287.817 235.628 265.582  1.00 89.48    -0.166 F 
HETATM   30  F27   D T2602     289.437 234.331 264.818  1.00 89.48    -0.166 F 
HETATM   31  F28   D T2602     287.609 233.412 265.644  1.00 89.48    -0.166 F 
ENDBRANCH  24  28
BRANCH  25  32
HETATM   32  C17   D T2602     286.887 234.713 268.397  1.00 89.48     0.103 C 
BRANCH  32  33
HETATM   33  N18   D T2602     286.553 235.672 269.156  1.00 89.48    -0.245 NA
HETATM   34  C19   D T2602     285.328 235.384 269.720  1.00 89.48     0.060 C 
HETATM   35  C20   D T2602     284.758 236.566 270.505  1.00 89.48     0.059 C 
HETATM   36  N21   D T2602     284.755 237.726 269.759  1.00 89.48    -0.248 NA
HETATM   37  C22   D T2602     285.982 238.018 269.220  1.00 89.48     0.094 C 
HETATM   38  C24   D T2602     284.362 238.694 270.476  1.00 89.48     0.094 C 
HETATM   39  C23   D T2602     286.533 236.835 268.418  1.00 89.48     0.095 C 
ENDBRANCH  32  33
ENDBRANCH  25  32
ENDBRANCH   1  22
TORSDOF 7
ENDMDL
MODEL 9
REMARK VINA RESULT:    -7.799      5.368     12.074
REMARK INTER + INTRA:         -12.012
REMARK INTER:                 -10.988
REMARK INTRA:                  -1.025
REMARK UNBOUND:                -1.021
REMARK  7 active torsions:
REMARK  status: ('A' for Active; 'I' for Inactive)
REMARK    1  A    between atoms: C13_1  and  C25_22 
REMARK    2  A    between atoms: C17_3  and  C14_7 
REMARK    3  A    between atoms: C17_3  and  N18_34 
REMARK    4  A    between atoms: C11_5  and  N10_10 
REMARK       I    between atoms: N10_10  and  C08_18 
REMARK    5  A    between atoms: C03_13  and  C29_23 
REMARK    6  A    between atoms: C05_15  and  C08_18 
REMARK    7  A    between atoms: C30_24  and  C31_25 
ROOT
HETATM    1  N10   D T2602     292.739 234.008 268.172  1.00 89.48    -0.208 NA
HETATM    2  C08   D T2602     293.608 235.121 268.433  1.00 89.48     0.279 C 
HETATM    3  O09   D T2602     293.167 236.203 268.658  1.00 89.48    -0.265 OA
ENDROOT
BRANCH   2   4
HETATM    4  C05   D T2602     295.151 234.939 268.418  1.00 89.48     0.059 A 
HETATM    5  C04   D T2602     295.897 235.529 269.436  1.00 89.48     0.013 A 
HETATM    6  C03   D T2602     297.282 235.388 269.455  1.00 89.48     0.038 A 
HETATM    7  C02   D T2602     297.927 234.660 268.459  1.00 89.48    -0.014 A 
HETATM    8  C01   D T2602     299.474 234.519 268.504  1.00 89.48     0.032 C 
HETATM    9  C07   D T2602     297.185 234.069 267.442  1.00 89.48    -0.004 A 
HETATM   10  C06   D T2602     295.782 234.208 267.424  1.00 89.48     0.004 A 
BRANCH   6  11
HETATM   11  C29   D T2602     298.088 236.048 270.592  1.00 89.48    -0.060 C 
HETATM   12  C30   D T2602     298.696 236.591 271.470  1.00 89.48    -0.058 C 
BRANCH  12  13
HETATM   13  C31   D T2602     299.471 237.294 272.602  1.00 89.48     0.061 A 
HETATM   14  C32   D T2602     298.974 237.281 273.918  1.00 89.48     0.015 A 
HETATM   15  C33   D T2602     299.736 237.948 274.916  1.00 89.48     0.059 A 
HETATM   16  C34   D T2602     300.906 238.563 274.562  1.00 89.48     0.185 A 
HETATM   17  C37   D T2602     299.588 238.162 276.328  1.00 89.48     0.125 A 
HETATM   18  N35   D T2602     301.432 239.117 275.695  1.00 89.48    -0.129 NA
HETATM   19  N38   D T2602     301.353 238.551 273.278  1.00 89.48    -0.223 NA
HETATM   20  N36   D T2602     300.628 238.869 276.750  1.00 89.48    -0.145 NA
HETATM   21  C39   D T2602     300.677 237.944 272.315  1.00 89.48     0.109 A 
ENDBRANCH  12  13
ENDBRANCH   6  11
ENDBRANCH   2   4
BRANCH   1  22
HETATM   22  C11   D T2602     291.275 234.176 268.184  1.00 89.48     0.085 A 
HETATM   23  C12   D T2602     290.564 234.224 266.988  1.00 89.48     0.023 A 
HETATM   24  C13   D T2602     289.182 234.382 266.987  1.00 89.48     0.070 A 
HETATM   25  C14   D T2602     288.491 234.489 268.211  1.00 89.48    -0.002 A 
HETATM   26  C15   D T2602     289.206 234.433 269.406  1.00 89.48    -0.001 A 
HETATM   27  C16   D T2602     290.595 234.278 269.401  1.00 89.48     0.019 A 
BRANCH  24  28
HETATM   28  C25   D T2602     288.490 234.435 265.628  1.00 89.48     0.419 C 
HETATM   29  F26   D T2602     289.400 234.315 264.629  1.00 89.48    -0.166 F 
HETATM   30  F27   D T2602     287.620 233.383 265.553  1.00 89.48    -0.166 F 
HETATM   31  F28   D T2602     287.784 235.583 265.486  1.00 89.48    -0.166 F 
ENDBRANCH  24  28
BRANCH  25  32
HETATM   32  C17   D T2602     286.941 234.663 268.272  1.00 89.48     0.103 C 
BRANCH  32  33
HETATM   33  N18   D T2602     286.626 235.613 269.049  1.00 89.48    -0.245 NA
HETATM   34  C19   D T2602     285.425 235.312 269.655  1.00 89.48     0.060 C 
HETATM   35  C20   D T2602     284.875 236.484 270.468  1.00 89.48     0.059 C 
HETATM   36  N21   D T2602     284.836 237.650 269.730  1.00 89.48    -0.248 NA
HETATM   37  C22   D T2602     286.040 237.954 269.150  1.00 89.48     0.094 C 
HETATM   38  C24   D T2602     284.461 238.609 270.468  1.00 89.48     0.094 C 
HETATM   39  C23   D T2602     286.571 236.781 268.320  1.00 89.48     0.095 C 
ENDBRANCH  32  33
ENDBRANCH  25  32
ENDBRANCH   1  22
TORSDOF 7
ENDMDL
