MODEL 1
REMARK VINA RESULT:      -8.3      0.000      0.000
REMARK  7 active torsions:
REMARK  status: ('A' for Active; 'I' for Inactive)
REMARK    1  A    between atoms: C13_1  and  C25_22 
REMARK    2  A    between atoms: C17_3  and  C14_7 
REMARK    3  A    between atoms: C17_3  and  N18_34 
REMARK    4  A    between atoms: C11_5  and  N10_10 
REMARK       I    between atoms: N10_10  and  C08_18 
REMARK    5  A    between atoms: C03_13  and  C29_23 
REMARK    6  A    between atoms: C05_15  and  C08_18 
REMARK    7  A    between atoms: C30_24  and  C31_25 
ROOT
HETATM    1  N10   D T2602     292.511 233.483 267.298  1.00 89.48    -0.208 NA
HETATM    2  C08   D T2602     292.088 233.414 265.927  1.00 89.48     0.279 C 
HETATM    3  O09   D T2602     292.845 233.087 265.069  1.00 89.48    -0.265 OA
ENDROOT
BRANCH   2   4
HETATM    4  C05   D T2602     290.631 233.777 265.531  1.00 89.48     0.059 A 
HETATM    5  C04   D T2602     289.775 234.250 266.523  1.00 89.48     0.013 A 
HETATM    6  C03   D T2602     288.461 234.585 266.206  1.00 89.48     0.038 A 
HETATM    7  C02   D T2602     287.997 234.448 264.900  1.00 89.48    -0.014 A 
HETATM    8  C01   D T2602     286.526 234.828 264.573  1.00 89.48     0.032 C 
HETATM    9  C07   D T2602     288.850 233.976 263.908  1.00 89.48    -0.004 A 
HETATM   10  C06   D T2602     290.182 233.641 264.227  1.00 89.48     0.004 A 
BRANCH   6  11
HETATM   11  C29   D T2602     287.530 235.108 267.318  1.00 89.48    -0.060 C 
HETATM   12  C30   D T2602     286.832 235.509 268.206  1.00 89.48    -0.058 C 
BRANCH  12  13
HETATM   13  C31   D T2602     285.943 236.028 269.353  1.00 89.48     0.061 A 
HETATM   14  C32   D T2602     286.223 237.261 269.968  1.00 89.48     0.015 A 
HETATM   15  C33   D T2602     285.365 237.684 271.019  1.00 89.48     0.059 A 
HETATM   16  C34   D T2602     284.313 236.887 271.383  1.00 89.48     0.185 A 
HETATM   17  C37   D T2602     285.303 238.834 271.875  1.00 89.48     0.125 A 
HETATM   18  N35   D T2602     283.658 237.519 272.401  1.00 89.48    -0.129 NA
HETATM   19  N38   D T2602     284.075 235.701 270.762  1.00 89.48    -0.223 NA
HETATM   20  N36   D T2602     284.265 238.690 272.688  1.00 89.48    -0.145 NA
HETATM   21  C39   D T2602     284.848 235.266 269.779  1.00 89.48     0.109 A 
ENDBRANCH  12  13
ENDBRANCH   6  11
ENDBRANCH   2   4
BRANCH   1  22
HETATM   22  C11   D T2602     293.893 233.141 267.679  1.00 89.48     0.085 A 
HETATM   23  C12   D T2602     294.844 234.145 267.848  1.00 89.48     0.023 A 
HETATM   24  C13   D T2602     296.151 233.833 268.207  1.00 89.48     0.070 A 
HETATM   25  C14   D T2602     296.517 232.487 268.410  1.00 89.48    -0.002 A 
HETATM   26  C15   D T2602     295.561 231.487 268.248  1.00 89.48    -0.001 A 
HETATM   27  C16   D T2602     294.249 231.805 267.882  1.00 89.48     0.019 A 
BRANCH  24  28
HETATM   28  C25   D T2602     297.125 234.998 268.357  1.00 89.48     0.419 C 
HETATM   29  F26   D T2602     298.072 234.952 267.386  1.00 89.48    -0.166 F 
HETATM   30  F27   D T2602     296.420 236.162 268.222  1.00 89.48    -0.166 F 
HETATM   31  F28   D T2602     297.705 234.992 269.582  1.00 89.48    -0.166 F 
ENDBRANCH  24  28
BRANCH  25  32
HETATM   32  C17   D T2602     297.967 232.079 268.819  1.00 89.48     0.103 C 
BRANCH  32  33
HETATM   33  N18   D T2602     297.948 231.291 269.812  1.00 89.48    -0.245 NA
HETATM   34  C19   D T2602     297.837 232.036 270.967  1.00 89.48     0.060 C 
HETATM   35  C20   D T2602     297.994 231.183 272.226  1.00 89.48     0.059 C 
HETATM   36  N21   D T2602     299.135 230.408 272.185  1.00 89.48    -0.248 NA
HETATM   37  C22   D T2602     299.227 229.654 271.043  1.00 89.48     0.094 C 
HETATM   38  C24   D T2602     299.177 229.654 273.201  1.00 89.48     0.094 C 
HETATM   39  C23   D T2602     299.091 230.522 269.789  1.00 89.48     0.095 C 
ENDBRANCH  32  33
ENDBRANCH  25  32
ENDBRANCH   1  22
TORSDOF 7
ENDMDL
MODEL 2
REMARK VINA RESULT:      -8.2      6.498      9.676
REMARK  7 active torsions:
REMARK  status: ('A' for Active; 'I' for Inactive)
REMARK    1  A    between atoms: C13_1  and  C25_22 
REMARK    2  A    between atoms: C17_3  and  C14_7 
REMARK    3  A    between atoms: C17_3  and  N18_34 
REMARK    4  A    between atoms: C11_5  and  N10_10 
REMARK       I    between atoms: N10_10  and  C08_18 
REMARK    5  A    between atoms: C03_13  and  C29_23 
REMARK    6  A    between atoms: C05_15  and  C08_18 
REMARK    7  A    between atoms: C30_24  and  C31_25 
ROOT
HETATM    1  N10   D T2602     291.625 233.853 271.182  1.00 89.48    -0.208 NA
HETATM    2  C08   D T2602     291.295 232.957 272.255  1.00 89.48     0.279 C 
HETATM    3  O09   D T2602     290.584 232.021 272.074  1.00 89.48    -0.265 OA
ENDROOT
BRANCH   2   4
HETATM    4  C05   D T2602     291.853 233.197 273.685  1.00 89.48     0.059 A 
HETATM    5  C04   D T2602     291.022 233.803 274.626  1.00 89.48     0.013 A 
HETATM    6  C03   D T2602     291.488 234.035 275.917  1.00 89.48     0.038 A 
HETATM    7  C02   D T2602     292.782 233.666 276.274  1.00 89.48    -0.014 A 
HETATM    8  C01   D T2602     293.277 233.938 277.721  1.00 89.48     0.032 C 
HETATM    9  C07   D T2602     293.613 233.062 275.336  1.00 89.48    -0.004 A 
HETATM   10  C06   D T2602     293.142 232.822 274.030  1.00 89.48     0.004 A 
BRANCH   6  11
HETATM   11  C29   D T2602     290.552 234.705 276.943  1.00 89.48    -0.060 C 
HETATM   12  C30   D T2602     289.840 235.205 277.767  1.00 89.48    -0.058 C 
BRANCH  12  13
HETATM   13  C31   D T2602     288.930 235.847 278.833  1.00 89.48     0.061 A 
HETATM   14  C32   D T2602     288.153 235.041 279.684  1.00 89.48     0.015 A 
HETATM   15  C33   D T2602     287.336 235.695 280.646  1.00 89.48     0.059 A 
HETATM   16  C34   D T2602     287.341 237.063 280.707  1.00 89.48     0.185 A 
HETATM   17  C37   D T2602     286.426 235.258 281.666  1.00 89.48     0.125 A 
HETATM   18  N35   D T2602     286.482 237.428 281.704  1.00 89.48    -0.129 NA
HETATM   19  N38   D T2602     288.109 237.806 279.866  1.00 89.48    -0.223 NA
HETATM   20  N36   D T2602     285.937 236.332 282.272  1.00 89.48    -0.145 NA
HETATM   21  C39   D T2602     288.885 237.241 278.955  1.00 89.48     0.109 A 
ENDBRANCH  12  13
ENDBRANCH   6  11
ENDBRANCH   2   4
BRANCH   1  22
HETATM   22  C11   D T2602     291.098 233.630 269.824  1.00 89.48     0.085 A 
HETATM   23  C12   D T2602     290.051 234.412 269.341  1.00 89.48     0.023 A 
HETATM   24  C13   D T2602     289.544 234.210 268.061  1.00 89.48     0.070 A 
HETATM   25  C14   D T2602     290.101 233.208 267.240  1.00 89.48    -0.002 A 
HETATM   26  C15   D T2602     291.154 232.434 267.726  1.00 89.48    -0.001 A 
HETATM   27  C16   D T2602     291.656 232.638 269.014  1.00 89.48     0.019 A 
BRANCH  24  28
HETATM   28  C25   D T2602     288.390 235.106 267.623  1.00 89.48     0.419 C 
HETATM   29  F26   D T2602     287.333 234.354 267.224  1.00 89.48    -0.166 F 
HETATM   30  F27   D T2602     288.006 235.859 268.697  1.00 89.48    -0.166 F 
HETATM   31  F28   D T2602     288.774 235.944 266.631  1.00 89.48    -0.166 F 
ENDBRANCH  24  28
BRANCH  25  32
HETATM   32  C17   D T2602     289.578 232.940 265.794  1.00 89.48     0.103 C 
BRANCH  32  33
HETATM   33  N18   D T2602     290.218 233.636 264.950  1.00 89.48    -0.245 NA
HETATM   34  C19   D T2602     289.436 233.798 263.825  1.00 89.48     0.060 C 
HETATM   35  C20   D T2602     290.197 234.466 262.680  1.00 89.48     0.059 C 
HETATM   36  N21   D T2602     291.398 233.836 262.423  1.00 89.48    -0.248 NA
HETATM   37  C22   D T2602     292.179 233.699 263.542  1.00 89.48     0.094 C 
HETATM   38  C24   D T2602     292.034 234.475 261.533  1.00 89.48     0.094 C 
HETATM   39  C23   D T2602     291.413 233.009 264.674  1.00 89.48     0.095 C 
ENDBRANCH  32  33
ENDBRANCH  25  32
ENDBRANCH   1  22
TORSDOF 7
ENDMDL
MODEL 3
REMARK VINA RESULT:      -7.6      6.185     10.574
REMARK  7 active torsions:
REMARK  status: ('A' for Active; 'I' for Inactive)
REMARK    1  A    between atoms: C13_1  and  C25_22 
REMARK    2  A    between atoms: C17_3  and  C14_7 
REMARK    3  A    between atoms: C17_3  and  N18_34 
REMARK    4  A    between atoms: C11_5  and  N10_10 
REMARK       I    between atoms: N10_10  and  C08_18 
REMARK    5  A    between atoms: C03_13  and  C29_23 
REMARK    6  A    between atoms: C05_15  and  C08_18 
REMARK    7  A    between atoms: C30_24  and  C31_25 
ROOT
HETATM    1  N10   D T2602     294.589 234.606 268.605  1.00 89.48    -0.208 NA
HETATM    2  C08   D T2602     294.716 235.964 269.054  1.00 89.48     0.279 C 
HETATM    3  O09   D T2602     293.900 236.782 268.768  1.00 89.48    -0.265 OA
ENDROOT
BRANCH   2   4
HETATM    4  C05   D T2602     295.931 236.401 269.918  1.00 89.48     0.059 A 
HETATM    5  C04   D T2602     295.696 236.816 271.227  1.00 89.48     0.013 A 
HETATM    6  C03   D T2602     296.760 237.216 272.031  1.00 89.48     0.038 A 
HETATM    7  C02   D T2602     298.060 237.203 271.533  1.00 89.48    -0.014 A 
HETATM    8  C01   D T2602     299.229 237.655 272.452  1.00 89.48     0.032 C 
HETATM    9  C07   D T2602     298.297 236.788 270.227  1.00 89.48    -0.004 A 
HETATM   10  C06   D T2602     297.221 236.380 269.413  1.00 89.48     0.004 A 
BRANCH   6  11
HETATM   11  C29   D T2602     296.479 237.670 273.478  1.00 89.48    -0.060 C 
HETATM   12  C30   D T2602     296.246 238.054 274.589  1.00 89.48    -0.058 C 
BRANCH  12  13
HETATM   13  C31   D T2602     295.939 238.551 276.015  1.00 89.48     0.061 A 
HETATM   14  C32   D T2602     296.595 239.685 276.529  1.00 89.48     0.015 A 
HETATM   15  C33   D T2602     296.267 240.092 277.851  1.00 89.48     0.059 A 
HETATM   16  C34   D T2602     295.338 239.379 278.559  1.00 89.48     0.185 A 
HETATM   17  C37   D T2602     296.691 241.156 278.717  1.00 89.48     0.125 A 
HETATM   18  N35   D T2602     295.211 239.976 279.780  1.00 89.48    -0.129 NA
HETATM   19  N38   D T2602     294.725 238.289 278.025  1.00 89.48    -0.223 NA
HETATM   20  N36   D T2602     296.032 241.044 279.863  1.00 89.48    -0.145 NA
HETATM   21  C39   D T2602     294.998 237.872 276.798  1.00 89.48     0.109 A 
ENDBRANCH  12  13
ENDBRANCH   6  11
ENDBRANCH   2   4
BRANCH   1  22
HETATM   22  C11   D T2602     293.439 234.187 267.785  1.00 89.48     0.085 A 
HETATM   23  C12   D T2602     293.527 234.201 266.394  1.00 89.48     0.023 A 
HETATM   24  C13   D T2602     292.447 233.809 265.610  1.00 89.48     0.070 A 
HETATM   25  C14   D T2602     291.253 233.384 266.227  1.00 89.48    -0.002 A 
HETATM   26  C15   D T2602     291.173 233.365 267.618  1.00 89.48    -0.001 A 
HETATM   27  C16   D T2602     292.259 233.765 268.402  1.00 89.48     0.019 A 
BRANCH  24  28
HETATM   28  C25   D T2602     292.632 233.868 264.096  1.00 89.48     0.419 C 
HETATM   29  F26   D T2602     291.815 234.808 263.556  1.00 89.48    -0.166 F 
HETATM   30  F27   D T2602     293.928 234.220 263.840  1.00 89.48    -0.166 F 
HETATM   31  F28   D T2602     292.400 232.660 263.530  1.00 89.48    -0.166 F 
ENDBRANCH  24  28
BRANCH  25  32
HETATM   32  C17   D T2602     290.012 232.927 265.398  1.00 89.48     0.103 C 
BRANCH  32  33
HETATM   33  N18   D T2602     289.194 233.884 265.250  1.00 89.48    -0.245 NA
HETATM   34  C19   D T2602     288.192 233.761 266.188  1.00 89.48     0.060 C 
HETATM   35  C20   D T2602     287.062 234.766 265.966  1.00 89.48     0.059 C 
HETATM   36  N21   D T2602     286.597 234.739 264.667  1.00 89.48    -0.248 NA
HETATM   37  C22   D T2602     287.597 234.885 263.740  1.00 89.48     0.094 C 
HETATM   38  C24   D T2602     285.728 235.646 264.505  1.00 89.48     0.094 C 
HETATM   39  C23   D T2602     288.713 233.859 263.959  1.00 89.48     0.095 C 
ENDBRANCH  32  33
ENDBRANCH  25  32
ENDBRANCH   1  22
TORSDOF 7
ENDMDL
MODEL 4
REMARK VINA RESULT:      -7.6      7.761     10.382
REMARK  7 active torsions:
REMARK  status: ('A' for Active; 'I' for Inactive)
REMARK    1  A    between atoms: C13_1  and  C25_22 
REMARK    2  A    between atoms: C17_3  and  C14_7 
REMARK    3  A    between atoms: C17_3  and  N18_34 
REMARK    4  A    between atoms: C11_5  and  N10_10 
REMARK       I    between atoms: N10_10  and  C08_18 
REMARK    5  A    between atoms: C03_13  and  C29_23 
REMARK    6  A    between atoms: C05_15  and  C08_18 
REMARK    7  A    between atoms: C30_24  and  C31_25 
ROOT
HETATM    1  N10   D T2602     292.310 234.542 274.526  1.00 89.48    -0.208 NA
HETATM    2  C08   D T2602     291.929 233.352 273.816  1.00 89.48     0.279 C 
HETATM    3  O09   D T2602     291.143 232.588 274.280  1.00 89.48    -0.265 OA
ENDROOT
BRANCH   2   4
HETATM    4  C05   D T2602     292.544 233.030 272.427  1.00 89.48     0.059 A 
HETATM    5  C04   D T2602     291.752 233.211 271.295  1.00 89.48     0.013 A 
HETATM    6  C03   D T2602     292.268 232.931 270.033  1.00 89.48     0.038 A 
HETATM    7  C02   D T2602     293.575 232.471 269.895  1.00 89.48    -0.014 A 
HETATM    8  C01   D T2602     294.126 232.166 268.475  1.00 89.48     0.032 C 
HETATM    9  C07   D T2602     294.368 232.291 271.023  1.00 89.48    -0.004 A 
HETATM   10  C06   D T2602     293.848 232.577 272.301  1.00 89.48     0.004 A 
BRANCH   6  11
HETATM   11  C29   D T2602     291.375 233.139 268.793  1.00 89.48    -0.060 C 
HETATM   12  C30   D T2602     290.710 233.298 267.809  1.00 89.48    -0.058 C 
BRANCH  12  13
HETATM   13  C31   D T2602     289.861 233.495 266.538  1.00 89.48     0.061 A 
HETATM   14  C32   D T2602     288.607 234.129 266.613  1.00 89.48     0.015 A 
HETATM   15  C33   D T2602     287.873 234.281 265.405  1.00 89.48     0.059 A 
HETATM   16  C34   D T2602     288.408 233.814 264.235  1.00 89.48     0.185 A 
HETATM   17  C37   D T2602     286.602 234.850 265.058  1.00 89.48     0.125 A 
HETATM   18  N35   D T2602     287.512 234.085 263.241  1.00 89.48    -0.129 NA
HETATM   19  N38   D T2602     289.625 233.208 264.205  1.00 89.48    -0.223 NA
HETATM   20  N36   D T2602     286.428 234.708 263.751  1.00 89.48    -0.145 NA
HETATM   21  C39   D T2602     290.345 233.044 265.304  1.00 89.48     0.109 A 
ENDBRANCH  12  13
ENDBRANCH   6  11
ENDBRANCH   2   4
BRANCH   1  22
HETATM   22  C11   D T2602     291.730 234.851 275.845  1.00 89.48     0.085 A 
HETATM   23  C12   D T2602     290.535 235.560 275.938  1.00 89.48     0.023 A 
HETATM   24  C13   D T2602     289.979 235.859 277.178  1.00 89.48     0.070 A 
HETATM   25  C14   D T2602     290.628 235.432 278.354  1.00 89.48    -0.002 A 
HETATM   26  C15   D T2602     291.820 234.717 278.256  1.00 89.48    -0.001 A 
HETATM   27  C16   D T2602     292.376 234.423 277.007  1.00 89.48     0.019 A 
BRANCH  24  28
HETATM   28  C25   D T2602     288.674 236.650 277.180  1.00 89.48     0.419 C 
HETATM   29  F26   D T2602     288.548 237.358 276.030  1.00 89.48    -0.166 F 
HETATM   30  F27   D T2602     287.639 235.761 277.260  1.00 89.48    -0.166 F 
HETATM   31  F28   D T2602     288.609 237.476 278.252  1.00 89.48    -0.166 F 
ENDBRANCH  24  28
BRANCH  25  32
HETATM   32  C17   D T2602     290.049 235.733 279.772  1.00 89.48     0.103 C 
BRANCH  32  33
HETATM   33  N18   D T2602     289.937 234.666 280.447  1.00 89.48    -0.245 NA
HETATM   34  C19   D T2602     288.698 234.114 280.202  1.00 89.48     0.060 C 
HETATM   35  C20   D T2602     288.401 232.924 281.115  1.00 89.48     0.059 C 
HETATM   36  N21   D T2602     288.609 233.230 282.445  1.00 89.48    -0.248 NA
HETATM   37  C22   D T2602     289.852 233.757 282.683  1.00 89.48     0.094 C 
HETATM   38  C24   D T2602     288.441 232.194 283.153  1.00 89.48     0.094 C 
HETATM   39  C23   D T2602     290.129 234.962 281.779  1.00 89.48     0.095 C 
ENDBRANCH  32  33
ENDBRANCH  25  32
ENDBRANCH   1  22
TORSDOF 7
ENDMDL
MODEL 5
REMARK VINA RESULT:      -7.5      8.435     10.633
REMARK  7 active torsions:
REMARK  status: ('A' for Active; 'I' for Inactive)
REMARK    1  A    between atoms: C13_1  and  C25_22 
REMARK    2  A    between atoms: C17_3  and  C14_7 
REMARK    3  A    between atoms: C17_3  and  N18_34 
REMARK    4  A    between atoms: C11_5  and  N10_10 
REMARK       I    between atoms: N10_10  and  C08_18 
REMARK    5  A    between atoms: C03_13  and  C29_23 
REMARK    6  A    between atoms: C05_15  and  C08_18 
REMARK    7  A    between atoms: C30_24  and  C31_25 
ROOT
HETATM    1  N10   D T2602     290.979 234.966 274.827  1.00 89.48    -0.208 NA
HETATM    2  C08   D T2602     291.772 233.814 274.501  1.00 89.48     0.279 C 
HETATM    3  O09   D T2602     292.155 233.074 275.351  1.00 89.48    -0.265 OA
ENDROOT
BRANCH   2   4
HETATM    4  C05   D T2602     292.157 233.511 273.027  1.00 89.48     0.059 A 
HETATM    5  C04   D T2602     291.262 233.873 272.022  1.00 89.48     0.013 A 
HETATM    6  C03   D T2602     291.572 233.616 270.689  1.00 89.48     0.038 A 
HETATM    7  C02   D T2602     292.774 232.999 270.354  1.00 89.48    -0.014 A 
HETATM    8  C01   D T2602     293.095 232.723 268.859  1.00 89.48     0.032 C 
HETATM    9  C07   D T2602     293.669 232.638 271.355  1.00 89.48    -0.004 A 
HETATM   10  C06   D T2602     293.358 232.900 272.705  1.00 89.48     0.004 A 
BRANCH   6  11
HETATM   11  C29   D T2602     290.568 234.025 269.592  1.00 89.48    -0.060 C 
HETATM   12  C30   D T2602     289.813 234.336 268.715  1.00 89.48    -0.058 C 
BRANCH  12  13
HETATM   13  C31   D T2602     288.846 234.730 267.581  1.00 89.48     0.061 A 
HETATM   14  C32   D T2602     288.701 233.904 266.452  1.00 89.48     0.015 A 
HETATM   15  C33   D T2602     287.793 234.322 265.442  1.00 89.48     0.059 A 
HETATM   16  C34   D T2602     287.103 235.493 265.608  1.00 89.48     0.185 A 
HETATM   17  C37   D T2602     287.367 233.789 264.179  1.00 89.48     0.125 A 
HETATM   18  N35   D T2602     286.310 235.656 264.508  1.00 89.48    -0.129 NA
HETATM   19  N38   D T2602     287.271 236.263 266.716  1.00 89.48    -0.223 NA
HETATM   20  N36   D T2602     286.479 234.624 263.656  1.00 89.48    -0.145 NA
HETATM   21  C39   D T2602     288.106 235.914 267.682  1.00 89.48     0.109 A 
ENDBRANCH  12  13
ENDBRANCH   6  11
ENDBRANCH   2   4
BRANCH   1  22
HETATM   22  C11   D T2602     290.612 235.258 276.223  1.00 89.48     0.085 A 
HETATM   23  C12   D T2602     289.466 234.696 276.781  1.00 89.48     0.023 A 
HETATM   24  C13   D T2602     289.109 234.966 278.098  1.00 89.48     0.070 A 
HETATM   25  C14   D T2602     289.920 235.812 278.881  1.00 89.48    -0.002 A 
HETATM   26  C15   D T2602     291.070 236.366 278.322  1.00 89.48    -0.001 A 
HETATM   27  C16   D T2602     291.421 236.096 276.996  1.00 89.48     0.019 A 
BRANCH  24  28
HETATM   28  C25   D T2602     287.831 234.314 278.618  1.00 89.48     0.419 C 
HETATM   29  F26   D T2602     286.984 235.256 279.105  1.00 89.48    -0.166 F 
HETATM   30  F27   D T2602     287.221 233.681 277.571  1.00 89.48    -0.166 F 
HETATM   31  F28   D T2602     288.109 233.391 279.570  1.00 89.48    -0.166 F 
ENDBRANCH  24  28
BRANCH  25  32
HETATM   32  C17   D T2602     289.573 236.146 280.366  1.00 89.48     0.103 C 
BRANCH  32  33
HETATM   33  N18   D T2602     290.474 235.713 281.146  1.00 89.48    -0.245 NA
HETATM   34  C19   D T2602     289.941 234.710 281.927  1.00 89.48     0.060 C 
HETATM   35  C20   D T2602     290.902 234.255 283.025  1.00 89.48     0.059 C 
HETATM   36  N21   D T2602     291.385 235.319 283.760  1.00 89.48    -0.248 NA
HETATM   37  C22   D T2602     291.934 236.302 282.977  1.00 89.48     0.094 C 
HETATM   38  C24   D T2602     292.243 234.907 284.594  1.00 89.48     0.094 C 
HETATM   39  C23   D T2602     290.955 236.765 281.895  1.00 89.48     0.095 C 
ENDBRANCH  32  33
ENDBRANCH  25  32
ENDBRANCH   1  22
TORSDOF 7
ENDMDL
MODEL 6
REMARK VINA RESULT:      -7.3      7.090     10.358
REMARK  7 active torsions:
REMARK  status: ('A' for Active; 'I' for Inactive)
REMARK    1  A    between atoms: C13_1  and  C25_22 
REMARK    2  A    between atoms: C17_3  and  C14_7 
REMARK    3  A    between atoms: C17_3  and  N18_34 
REMARK    4  A    between atoms: C11_5  and  N10_10 
REMARK       I    between atoms: N10_10  and  C08_18 
REMARK    5  A    between atoms: C03_13  and  C29_23 
REMARK    6  A    between atoms: C05_15  and  C08_18 
REMARK    7  A    between atoms: C30_24  and  C31_25 
ROOT
HETATM    1  N10   D T2602     291.922 234.735 274.111  1.00 89.48    -0.208 NA
HETATM    2  C08   D T2602     292.981 233.800 273.853  1.00 89.48     0.279 C 
HETATM    3  O09   D T2602     293.674 233.401 274.734  1.00 89.48    -0.265 OA
ENDROOT
BRANCH   2   4
HETATM    4  C05   D T2602     293.253 233.293 272.410  1.00 89.48     0.059 A 
HETATM    5  C04   D T2602     292.269 233.489 271.444  1.00 89.48     0.013 A 
HETATM    6  C03   D T2602     292.477 233.047 270.140  1.00 89.48     0.038 A 
HETATM    7  C02   D T2602     293.666 232.410 269.795  1.00 89.48    -0.014 A 
HETATM    8  C01   D T2602     293.872 231.926 268.333  1.00 89.48     0.032 C 
HETATM    9  C07   D T2602     294.650 232.214 270.758  1.00 89.48    -0.004 A 
HETATM   10  C06   D T2602     294.443 232.664 272.077  1.00 89.48     0.004 A 
BRANCH   6  11
HETATM   11  C29   D T2602     291.375 233.275 269.085  1.00 89.48    -0.060 C 
HETATM   12  C30   D T2602     290.544 233.456 268.240  1.00 89.48    -0.058 C 
BRANCH  12  13
HETATM   13  C31   D T2602     289.481 233.684 267.148  1.00 89.48     0.061 A 
HETATM   14  C32   D T2602     289.802 233.488 265.792  1.00 89.48     0.015 A 
HETATM   15  C33   D T2602     288.777 233.715 264.834  1.00 89.48     0.059 A 
HETATM   16  C34   D T2602     287.537 234.106 265.262  1.00 89.48     0.185 A 
HETATM   17  C37   D T2602     288.692 233.631 263.403  1.00 89.48     0.125 A 
HETATM   18  N35   D T2602     286.752 234.251 264.154  1.00 89.48    -0.129 NA
HETATM   19  N38   D T2602     287.267 234.283 266.583  1.00 89.48    -0.223 NA
HETATM   20  N36   D T2602     287.460 233.963 263.042  1.00 89.48    -0.145 NA
HETATM   21  C39   D T2602     288.190 234.084 267.511  1.00 89.48     0.109 A 
ENDBRANCH  12  13
ENDBRANCH   6  11
ENDBRANCH   2   4
BRANCH   1  22
HETATM   22  C11   D T2602     291.660 235.219 275.478  1.00 89.48     0.085 A 
HETATM   23  C12   D T2602     292.175 236.442 275.900  1.00 89.48     0.023 A 
HETATM   24  C13   D T2602     291.934 236.909 277.188  1.00 89.48     0.070 A 
HETATM   25  C14   D T2602     291.154 236.140 278.075  1.00 89.48    -0.002 A 
HETATM   26  C15   D T2602     290.635 234.920 277.645  1.00 89.48    -0.001 A 
HETATM   27  C16   D T2602     290.884 234.453 276.351  1.00 89.48     0.019 A 
BRANCH  24  28
HETATM   28  C25   D T2602     292.550 238.254 277.565  1.00 89.48     0.419 C 
HETATM   29  F26   D T2602     293.477 238.093 278.541  1.00 89.48    -0.166 F 
HETATM   30  F27   D T2602     293.168 238.763 276.457  1.00 89.48    -0.166 F 
HETATM   31  F28   D T2602     291.595 239.131 277.960  1.00 89.48    -0.166 F 
ENDBRANCH  24  28
BRANCH  25  32
HETATM   32  C17   D T2602     290.847 236.615 279.530  1.00 89.48     0.103 C 
BRANCH  32  33
HETATM   33  N18   D T2602     289.600 236.591 279.756  1.00 89.48    -0.245 NA
HETATM   34  C19   D T2602     289.160 237.882 279.956  1.00 89.48     0.060 C 
HETATM   35  C20   D T2602     287.704 237.934 280.419  1.00 89.48     0.059 C 
HETATM   36  N21   D T2602     287.478 237.108 281.500  1.00 89.48    -0.248 NA
HETATM   37  C22   D T2602     287.897 235.820 281.285  1.00 89.48     0.094 C 
HETATM   38  C24   D T2602     286.245 237.113 281.791  1.00 89.48     0.094 C 
HETATM   39  C23   D T2602     289.363 235.779 280.843  1.00 89.48     0.095 C 
ENDBRANCH  32  33
ENDBRANCH  25  32
ENDBRANCH   1  22
TORSDOF 7
ENDMDL
MODEL 7
REMARK VINA RESULT:      -7.1      6.318      9.919
REMARK  7 active torsions:
REMARK  status: ('A' for Active; 'I' for Inactive)
REMARK    1  A    between atoms: C13_1  and  C25_22 
REMARK    2  A    between atoms: C17_3  and  C14_7 
REMARK    3  A    between atoms: C17_3  and  N18_34 
REMARK    4  A    between atoms: C11_5  and  N10_10 
REMARK       I    between atoms: N10_10  and  C08_18 
REMARK    5  A    between atoms: C03_13  and  C29_23 
REMARK    6  A    between atoms: C05_15  and  C08_18 
REMARK    7  A    between atoms: C30_24  and  C31_25 
ROOT
HETATM    1  N10   D T2602     291.906 234.525 272.241  1.00 89.48    -0.208 NA
HETATM    2  C08   D T2602     292.742 233.595 272.949  1.00 89.48     0.279 C 
HETATM    3  O09   D T2602     293.180 232.631 272.406  1.00 89.48    -0.265 OA
ENDROOT
BRANCH   2   4
HETATM    4  C05   D T2602     293.086 233.823 274.446  1.00 89.48     0.059 A 
HETATM    5  C04   D T2602     292.089 234.317 275.285  1.00 89.48     0.013 A 
HETATM    6  C03   D T2602     292.361 234.535 276.633  1.00 89.48     0.038 A 
HETATM    7  C02   D T2602     293.626 234.262 277.148  1.00 89.48    -0.014 A 
HETATM    8  C01   D T2602     293.902 234.515 278.656  1.00 89.48     0.032 C 
HETATM    9  C07   D T2602     294.621 233.768 276.312  1.00 89.48    -0.004 A 
HETATM   10  C06   D T2602     294.347 233.543 274.948  1.00 89.48     0.004 A 
BRANCH   6  11
HETATM   11  C29   D T2602     291.244 235.081 277.546  1.00 89.48    -0.060 C 
HETATM   12  C30   D T2602     290.397 235.498 278.284  1.00 89.48    -0.058 C 
BRANCH  12  13
HETATM   13  C31   D T2602     289.314 236.039 279.238  1.00 89.48     0.061 A 
HETATM   14  C32   D T2602     288.503 235.152 279.968  1.00 89.48     0.015 A 
HETATM   15  C33   D T2602     287.523 235.714 280.831  1.00 89.48     0.059 A 
HETATM   16  C34   D T2602     287.413 237.076 280.918  1.00 89.48     0.185 A 
HETATM   17  C37   D T2602     286.530 235.180 281.720  1.00 89.48     0.125 A 
HETATM   18  N35   D T2602     286.411 237.346 281.806  1.00 89.48    -0.129 NA
HETATM   19  N38   D T2602     288.218 237.900 280.196  1.00 89.48    -0.223 NA
HETATM   20  N36   D T2602     285.887 236.196 282.280  1.00 89.48    -0.145 NA
HETATM   21  C39   D T2602     289.144 237.422 279.379  1.00 89.48     0.109 A 
ENDBRANCH  12  13
ENDBRANCH   6  11
ENDBRANCH   2   4
BRANCH   1  22
HETATM   22  C11   D T2602     291.575 234.313 270.821  1.00 89.48     0.085 A 
HETATM   23  C12   D T2602     292.454 234.732 269.825  1.00 89.48     0.023 A 
HETATM   24  C13   D T2602     292.152 234.537 268.482  1.00 89.48     0.070 A 
HETATM   25  C14   D T2602     290.946 233.903 268.122  1.00 89.48    -0.002 A 
HETATM   26  C15   D T2602     290.073 233.479 269.122  1.00 89.48    -0.001 A 
HETATM   27  C16   D T2602     290.379 233.681 270.471  1.00 89.48     0.019 A 
BRANCH  24  28
HETATM   28  C25   D T2602     293.170 235.040 267.462  1.00 89.48     0.419 C 
HETATM   29  F26   D T2602     292.567 235.834 266.543  1.00 89.48    -0.166 F 
HETATM   30  F27   D T2602     294.108 235.780 268.128  1.00 89.48    -0.166 F 
HETATM   31  F28   D T2602     293.798 234.006 266.852  1.00 89.48    -0.166 F 
ENDBRANCH  24  28
BRANCH  25  32
HETATM   32  C17   D T2602     290.557 233.653 266.631  1.00 89.48     0.103 C 
BRANCH  32  33
HETATM   33  N18   D T2602     289.339 233.942 266.431  1.00 89.48    -0.245 NA
HETATM   34  C19   D T2602     288.923 233.331 265.268  1.00 89.48     0.060 C 
HETATM   35  C20   D T2602     287.522 233.774 264.847  1.00 89.48     0.059 C 
HETATM   36  N21   D T2602     287.406 235.148 264.812  1.00 89.48    -0.248 NA
HETATM   37  C22   D T2602     287.800 235.748 265.980  1.00 89.48     0.094 C 
HETATM   38  C24   D T2602     286.209 235.469 264.549  1.00 89.48     0.094 C 
HETATM   39  C23   D T2602     289.213 235.313 266.380  1.00 89.48     0.095 C 
ENDBRANCH  32  33
ENDBRANCH  25  32
ENDBRANCH   1  22
TORSDOF 7
ENDMDL
MODEL 8
REMARK VINA RESULT:      -7.0      4.902     11.099
REMARK  7 active torsions:
REMARK  status: ('A' for Active; 'I' for Inactive)
REMARK    1  A    between atoms: C13_1  and  C25_22 
REMARK    2  A    between atoms: C17_3  and  C14_7 
REMARK    3  A    between atoms: C17_3  and  N18_34 
REMARK    4  A    between atoms: C11_5  and  N10_10 
REMARK       I    between atoms: N10_10  and  C08_18 
REMARK    5  A    between atoms: C03_13  and  C29_23 
REMARK    6  A    between atoms: C05_15  and  C08_18 
REMARK    7  A    between atoms: C30_24  and  C31_25 
ROOT
HETATM    1  N10   D T2602     291.688 235.071 268.320  1.00 89.48    -0.208 NA
HETATM    2  C08   D T2602     292.614 233.974 268.318  1.00 89.48     0.279 C 
HETATM    3  O09   D T2602     292.233 232.851 268.216  1.00 89.48    -0.265 OA
ENDROOT
BRANCH   2   4
HETATM    4  C05   D T2602     294.140 234.227 268.458  1.00 89.48     0.059 A 
HETATM    5  C04   D T2602     294.607 234.819 269.630  1.00 89.48     0.013 A 
HETATM    6  C03   D T2602     295.968 235.064 269.792  1.00 89.48     0.038 A 
HETATM    7  C02   D T2602     296.867 234.719 268.786  1.00 89.48    -0.014 A 
HETATM    8  C01   D T2602     298.381 235.003 268.992  1.00 89.48     0.032 C 
HETATM    9  C07   D T2602     296.404 234.127 267.616  1.00 89.48    -0.004 A 
HETATM   10  C06   D T2602     295.027 233.876 267.453  1.00 89.48     0.004 A 
BRANCH   6  11
HETATM   11  C29   D T2602     296.464 235.718 271.097  1.00 89.48    -0.060 C 
HETATM   12  C30   D T2602     296.824 236.253 272.107  1.00 89.48    -0.058 C 
BRANCH  12  13
HETATM   13  C31   D T2602     297.279 236.944 273.408  1.00 89.48     0.061 A 
HETATM   14  C32   D T2602     296.360 237.672 274.185  1.00 89.48     0.015 A 
HETATM   15  C33   D T2602     296.843 238.285 275.373  1.00 89.48     0.059 A 
HETATM   16  C34   D T2602     298.161 238.140 275.711  1.00 89.48     0.185 A 
HETATM   17  C37   D T2602     296.255 239.085 276.410  1.00 89.48     0.125 A 
HETATM   18  N35   D T2602     298.358 238.816 276.881  1.00 89.48    -0.129 NA
HETATM   19  N38   D T2602     299.018 237.426 274.932  1.00 89.48    -0.223 NA
HETATM   20  N36   D T2602     297.202 239.382 277.290  1.00 89.48    -0.145 NA
HETATM   21  C39   D T2602     298.614 236.838 273.817  1.00 89.48     0.109 A 
ENDBRANCH  12  13
ENDBRANCH   6  11
ENDBRANCH   2   4
BRANCH   1  22
HETATM   22  C11   D T2602     290.239 234.836 268.188  1.00 89.48     0.085 A 
HETATM   23  C12   D T2602     289.662 234.700 266.928  1.00 89.48     0.023 A 
HETATM   24  C13   D T2602     288.295 234.479 266.792  1.00 89.48     0.070 A 
HETATM   25  C14   D T2602     287.486 234.383 267.942  1.00 89.48    -0.002 A 
HETATM   26  C15   D T2602     288.069 234.512 269.201  1.00 89.48    -0.001 A 
HETATM   27  C16   D T2602     289.442 234.740 269.332  1.00 89.48     0.019 A 
BRANCH  24  28
HETATM   28  C25   D T2602     287.751 234.355 265.372  1.00 89.48     0.419 C 
HETATM   29  F26   D T2602     288.742 234.553 264.466  1.00 89.48    -0.166 F 
HETATM   30  F27   D T2602     287.264 233.087 265.213  1.00 89.48    -0.166 F 
HETATM   31  F28   D T2602     286.738 235.230 265.161  1.00 89.48    -0.166 F 
ENDBRANCH  24  28
BRANCH  25  32
HETATM   32  C17   D T2602     285.948 234.130 267.850  1.00 89.48     0.103 C 
BRANCH  32  33
HETATM   33  N18   D T2602     285.303 235.102 268.346  1.00 89.48    -0.245 NA
HETATM   34  C19   D T2602     285.927 236.278 267.988  1.00 89.48     0.060 C 
HETATM   35  C20   D T2602     285.327 237.493 268.695  1.00 89.48     0.059 C 
HETATM   36  N21   D T2602     285.253 237.310 270.061  1.00 89.48    -0.248 NA
HETATM   37  C22   D T2602     284.611 236.150 270.409  1.00 89.48     0.094 C 
HETATM   38  C24   D T2602     284.668 238.299 270.593  1.00 89.48     0.094 C 
HETATM   39  C23   D T2602     285.235 234.937 269.713  1.00 89.48     0.095 C 
ENDBRANCH  32  33
ENDBRANCH  25  32
ENDBRANCH   1  22
TORSDOF 7
ENDMDL
MODEL 9
REMARK VINA RESULT:      -7.0      7.398     10.705
REMARK  7 active torsions:
REMARK  status: ('A' for Active; 'I' for Inactive)
REMARK    1  A    between atoms: C13_1  and  C25_22 
REMARK    2  A    between atoms: C17_3  and  C14_7 
REMARK    3  A    between atoms: C17_3  and  N18_34 
REMARK    4  A    between atoms: C11_5  and  N10_10 
REMARK       I    between atoms: N10_10  and  C08_18 
REMARK    5  A    between atoms: C03_13  and  C29_23 
REMARK    6  A    between atoms: C05_15  and  C08_18 
REMARK    7  A    between atoms: C30_24  and  C31_25 
ROOT
HETATM    1  N10   D T2602     292.866 234.628 274.843  1.00 89.48    -0.208 NA
HETATM    2  C08   D T2602     292.155 233.637 274.085  1.00 89.48     0.279 C 
HETATM    3  O09   D T2602     291.182 233.112 274.524  1.00 89.48    -0.265 OA
ENDROOT
BRANCH   2   4
HETATM    4  C05   D T2602     292.648 233.219 272.672  1.00 89.48     0.059 A 
HETATM    5  C04   D T2602     291.786 233.396 271.592  1.00 89.48     0.013 A 
HETATM    6  C03   D T2602     292.192 233.032 270.311  1.00 89.48     0.038 A 
HETATM    7  C02   D T2602     293.458 232.490 270.103  1.00 89.48    -0.014 A 
HETATM    8  C01   D T2602     293.886 232.091 268.664  1.00 89.48     0.032 C 
HETATM    9  C07   D T2602     294.320 232.312 271.180  1.00 89.48    -0.004 A 
HETATM   10  C06   D T2602     293.911 232.684 272.477  1.00 89.48     0.004 A 
BRANCH   6  11
HETATM   11  C29   D T2602     291.224 233.239 269.129  1.00 89.48    -0.060 C 
HETATM   12  C30   D T2602     290.444 233.402 268.233  1.00 89.48    -0.058 C 
BRANCH  12  13
HETATM   13  C31   D T2602     289.437 233.618 267.087  1.00 89.48     0.061 A 
HETATM   14  C32   D T2602     289.825 233.413 265.751  1.00 89.48     0.015 A 
HETATM   15  C33   D T2602     288.849 233.629 264.741  1.00 89.48     0.059 A 
HETATM   16  C34   D T2602     287.588 234.019 265.103  1.00 89.48     0.185 A 
HETATM   17  C37   D T2602     288.836 233.533 263.308  1.00 89.48     0.125 A 
HETATM   18  N35   D T2602     286.859 234.152 263.956  1.00 89.48    -0.129 NA
HETATM   19  N38   D T2602     287.252 234.205 266.407  1.00 89.48    -0.223 NA
HETATM   20  N36   D T2602     287.623 233.858 262.883  1.00 89.48    -0.145 NA
HETATM   21  C39   D T2602     288.128 234.016 267.382  1.00 89.48     0.109 A 
ENDBRANCH  12  13
ENDBRANCH   6  11
ENDBRANCH   2   4
BRANCH   1  22
HETATM   22  C11   D T2602     292.403 235.027 276.183  1.00 89.48     0.085 A 
HETATM   23  C12   D T2602     292.681 234.227 277.289  1.00 89.48     0.023 A 
HETATM   24  C13   D T2602     292.248 234.594 278.559  1.00 89.48     0.070 A 
HETATM   25  C14   D T2602     291.527 235.792 278.732  1.00 89.48    -0.002 A 
HETATM   26  C15   D T2602     291.259 236.594 277.624  1.00 89.48    -0.001 A 
HETATM   27  C16   D T2602     291.691 236.218 276.349  1.00 89.48     0.019 A 
BRANCH  24  28
HETATM   28  C25   D T2602     292.589 233.648 279.708  1.00 89.48     0.419 C 
HETATM   29  F26   D T2602     293.392 234.268 280.609  1.00 89.48    -0.166 F 
HETATM   30  F27   D T2602     291.423 233.300 280.332  1.00 89.48    -0.166 F 
HETATM   31  F28   D T2602     293.179 232.518 279.248  1.00 89.48    -0.166 F 
ENDBRANCH  24  28
BRANCH  25  32
HETATM   32  C17   D T2602     291.022 236.257 280.134  1.00 89.48     0.103 C 
BRANCH  32  33
HETATM   33  N18   D T2602     289.812 236.631 280.074  1.00 89.48    -0.245 NA
HETATM   34  C19   D T2602     289.663 237.777 280.824  1.00 89.48     0.060 C 
HETATM   35  C20   D T2602     288.200 238.196 280.962  1.00 89.48     0.059 C 
HETATM   36  N21   D T2602     287.405 237.154 281.395  1.00 89.48    -0.248 NA
HETATM   37  C22   D T2602     287.541 236.025 280.630  1.00 89.48     0.094 C 
HETATM   38  C24   D T2602     286.192 237.519 281.407  1.00 89.48     0.094 C 
HETATM   39  C23   D T2602     289.009 235.602 280.517  1.00 89.48     0.095 C 
ENDBRANCH  32  33
ENDBRANCH  25  32
ENDBRANCH   1  22
TORSDOF 7
ENDMDL
