MODEL 1
REMARK VINA RESULT:      -8.9      0.000      0.000
REMARK  7 active torsions:
REMARK  status: ('A' for Active; 'I' for Inactive)
REMARK    1  A    between atoms: N3_2  and  C20_12 
REMARK    2  A    between atoms: C4_3  and  C5_4 
REMARK    3  A    between atoms: C13_9  and  N2_29 
REMARK    4  A    between atoms: C17_11  and  C19_33 
REMARK    5  A    between atoms: C20_12  and  C16_31 
REMARK    6  A    between atoms: C2_23  and  C3_24 
REMARK    7  A    between atoms: C9_25  and  C12_27 
REMARK       I    between atoms: C12_27  and  N2_29 
ROOT
HETATM    1  C12   D T2601     291.063 251.894 228.776  1.00 46.76     0.279 C 
HETATM    2  O1    D T2601     290.682 253.062 228.709  1.00 51.78    -0.265 OA
HETATM    3  N2    D T2601     291.215 251.224 229.929  1.00 44.45    -0.208 NA
ENDROOT
BRANCH   1   4
HETATM    4  C9    D T2601     291.357 251.170 227.506  1.00 45.99     0.059 A 
HETATM    5  C8    D T2601     292.395 250.184 227.368  1.00 46.02     0.004 A 
HETATM    6  C7    D T2601     292.598 249.535 226.118  1.00 47.49    -0.004 A 
HETATM    7  C6    D T2601     291.775 249.874 224.994  1.00 43.57    -0.014 A 
HETATM    8  C5    D T2601     290.737 250.869 225.149  1.00 47.11     0.038 A 
HETATM    9  C11   D T2601     291.999 249.179 223.658  1.00 43.74     0.032 C 
HETATM   10  C10   D T2601     290.549 251.492 226.394  1.00 47.17     0.013 A 
BRANCH   8  11
HETATM   11  C4    D T2601     289.872 251.254 224.049  1.00 52.56    -0.058 C 
HETATM   12  C3    D T2601     289.081 251.607 223.201  1.00 49.20    -0.039 C 
BRANCH  12  13
HETATM   13  C2    D T2601     288.208 251.916 222.161  1.00 38.17     0.145 A 
HETATM   14  N82   D T2601     287.375 251.065 221.519  1.00 38.45    -0.203 N 
HETATM   15  N81   D T2601     287.234 249.729 221.758  1.00 47.45    -0.162 NA
HETATM   16  C84   D T2601     286.711 251.855 220.568  1.00 43.62     0.165 A 
HETATM   17  C83   D T2601     286.337 249.167 220.954  1.00 47.13     0.121 A 
HETATM   18  C82   D T2601     285.586 249.824 219.948  1.00 45.79     0.026 A 
HETATM   19  C81   D T2601     285.769 251.174 219.752  1.00 45.43     0.041 A 
HETATM   20  N1    D T2601     287.115 253.099 220.630  1.00 46.40    -0.223 NA
HETATM   21  C1    D T2601     288.054 253.138 221.629  1.00 39.18     0.128 A 
ENDBRANCH  12  13
ENDBRANCH   8  11
ENDBRANCH   1   4
BRANCH   3  22
HETATM   22  C13   D T2601     290.980 251.739 231.227  1.00 46.23     0.085 A 
HETATM   23  C14   D T2601     291.982 252.528 231.834  1.00 47.02     0.019 A 
HETATM   24  C15   D T2601     291.778 253.070 233.142  1.00 48.51    -0.001 A 
HETATM   25  C16   D T2601     290.557 252.833 233.877  1.00 46.86     0.015 A 
HETATM   26  C17   D T2601     289.526 252.013 233.246  1.00 48.59     0.071 A 
HETATM   27  C18   D T2601     289.768 251.494 231.949  1.00 47.76     0.023 A 
BRANCH  25  28
HETATM   28  C20   D T2601     290.429 253.462 235.282  1.00 47.69     0.277 C 
BRANCH  28  29
HETATM   29  N3    D T2601     290.762 252.546 236.376  1.00 53.58     0.146 N 
HETATM   30  C21   D T2601     292.226 252.335 236.504  1.00 51.34     0.286 C 
HETATM   31  C22   D T2601     292.511 251.214 237.523  1.00 47.99     0.286 C 
HETATM   32  N4    D T2601     292.007 251.609 238.849  1.00 50.46     0.143 N 
HETATM   33  C23   D T2601     290.556 251.954 238.793  1.00 49.01     0.286 C 
HETATM   34  C25   D T2601     292.305 250.590 239.841  1.00 50.12     0.285 C 
HETATM   35  C24   D T2601     290.246 253.001 237.679  1.00 52.37     0.286 C 
ENDBRANCH  28  29
ENDBRANCH  25  28
BRANCH  26  36
HETATM   36  C19   D T2601     288.170 251.664 233.866  1.00 53.84     0.419 C 
HETATM   37  F1    D T2601     287.488 252.757 234.103  1.00 57.02    -0.166 F 
HETATM   38  F2    D T2601     287.434 250.900 233.074  1.00 55.32    -0.166 F 
HETATM   39  F3    D T2601     288.347 250.996 235.002  1.00 54.82    -0.166 F 
ENDBRANCH  26  36
ENDBRANCH   3  22
TORSDOF 7
ENDMDL
MODEL 2
REMARK VINA RESULT:      -8.1      6.193     10.162
REMARK  7 active torsions:
REMARK  status: ('A' for Active; 'I' for Inactive)
REMARK    1  A    between atoms: N3_2  and  C20_12 
REMARK    2  A    between atoms: C4_3  and  C5_4 
REMARK    3  A    between atoms: C13_9  and  N2_29 
REMARK    4  A    between atoms: C17_11  and  C19_33 
REMARK    5  A    between atoms: C20_12  and  C16_31 
REMARK    6  A    between atoms: C2_23  and  C3_24 
REMARK    7  A    between atoms: C9_25  and  C12_27 
REMARK       I    between atoms: C12_27  and  N2_29 
ROOT
HETATM    1  C12   D T2601     292.327 250.489 234.127  1.00 46.76     0.279 C 
HETATM    2  O1    D T2601     293.490 250.482 234.528  1.00 51.78    -0.265 OA
HETATM    3  N2    D T2601     291.922 249.882 233.001  1.00 44.45    -0.208 NA
ENDROOT
BRANCH   1   4
HETATM    4  C9    D T2601     291.301 251.198 234.944  1.00 45.99     0.059 A 
HETATM    5  C8    D T2601     291.442 251.468 236.350  1.00 46.02     0.004 A 
HETATM    6  C7    D T2601     290.414 252.161 237.048  1.00 47.49    -0.004 A 
HETATM    7  C6    D T2601     289.233 252.580 236.350  1.00 43.57    -0.014 A 
HETATM    8  C5    D T2601     289.106 252.299 234.938  1.00 47.11     0.038 A 
HETATM    9  C11   D T2601     288.135 253.319 237.103  1.00 43.74     0.032 C 
HETATM   10  C10   D T2601     290.136 251.619 234.267  1.00 47.17     0.013 A 
BRANCH   8  11
HETATM   11  C4    D T2601     287.936 252.698 234.178  1.00 52.56    -0.058 C 
HETATM   12  C3    D T2601     286.964 252.942 233.495  1.00 49.20    -0.039 C 
BRANCH  12  13
HETATM   13  C2    D T2601     285.886 253.337 232.707  1.00 38.17     0.145 A 
HETATM   14  N82   D T2601     285.287 252.617 231.731  1.00 38.45    -0.203 N 
HETATM   15  N81   D T2601     285.629 251.362 231.319  1.00 47.45    -0.162 NA
HETATM   16  C84   D T2601     284.261 253.443 231.247  1.00 43.62     0.165 A 
HETATM   17  C83   D T2601     284.850 250.926 230.332  1.00 47.13     0.121 A 
HETATM   18  C82   D T2601     283.778 251.637 229.737  1.00 45.79     0.026 A 
HETATM   19  C81   D T2601     283.478 252.900 230.195  1.00 45.43     0.041 A 
HETATM   20  N1    D T2601     284.242 254.585 231.886  1.00 46.40    -0.223 NA
HETATM   21  C1    D T2601     285.260 254.519 232.803  1.00 39.18     0.128 A 
ENDBRANCH  12  13
ENDBRANCH   8  11
ENDBRANCH   1   4
BRANCH   3  22
HETATM   22  C13   D T2601     292.746 249.159 232.104  1.00 46.23     0.085 A 
HETATM   23  C14   D T2601     293.030 247.805 232.386  1.00 47.02     0.019 A 
HETATM   24  C15   D T2601     293.853 247.041 231.500  1.00 48.51    -0.001 A 
HETATM   25  C16   D T2601     294.414 247.621 230.302  1.00 46.86     0.015 A 
HETATM   26  C17   D T2601     294.122 249.023 230.017  1.00 48.59     0.071 A 
HETATM   27  C18   D T2601     293.302 249.744 230.921  1.00 47.76     0.023 A 
BRANCH  25  28
HETATM   28  C20   D T2601     295.289 246.716 229.406  1.00 47.69     0.277 C 
BRANCH  28  29
HETATM   29  N3    D T2601     294.697 246.422 228.099  1.00 53.58     0.146 N 
HETATM   30  C21   D T2601     295.574 245.560 227.266  1.00 51.34     0.286 C 
HETATM   31  C22   D T2601     295.007 245.453 225.837  1.00 47.99     0.286 C 
HETATM   32  N4    D T2601     293.679 244.818 225.877  1.00 50.46     0.143 N 
HETATM   33  C23   D T2601     292.756 245.557 226.788  1.00 49.01     0.286 C 
HETATM   34  C25   D T2601     293.140 244.659 224.537  1.00 50.12     0.285 C 
HETATM   35  C24   D T2601     293.378 245.774 228.202  1.00 52.37     0.286 C 
ENDBRANCH  28  29
ENDBRANCH  25  28
BRANCH  26  36
HETATM   36  C19   D T2601     294.619 249.801 228.796  1.00 53.84     0.419 C 
HETATM   37  F1    D T2601     293.937 249.455 227.732  1.00 57.02    -0.166 F 
HETATM   38  F2    D T2601     294.489 251.111 228.942  1.00 55.32    -0.166 F 
HETATM   39  F3    D T2601     295.910 249.556 228.594  1.00 54.82    -0.166 F 
ENDBRANCH  26  36
ENDBRANCH   3  22
TORSDOF 7
ENDMDL
MODEL 3
REMARK VINA RESULT:      -8.0      3.311     12.457
REMARK  7 active torsions:
REMARK  status: ('A' for Active; 'I' for Inactive)
REMARK    1  A    between atoms: N3_2  and  C20_12 
REMARK    2  A    between atoms: C4_3  and  C5_4 
REMARK    3  A    between atoms: C13_9  and  N2_29 
REMARK    4  A    between atoms: C17_11  and  C19_33 
REMARK    5  A    between atoms: C20_12  and  C16_31 
REMARK    6  A    between atoms: C2_23  and  C3_24 
REMARK    7  A    between atoms: C9_25  and  C12_27 
REMARK       I    between atoms: C12_27  and  N2_29 
ROOT
HETATM    1  C12   D T2601     291.759 252.114 228.070  1.00 46.76     0.279 C 
HETATM    2  O1    D T2601     291.552 253.183 227.497  1.00 51.78    -0.265 OA
HETATM    3  N2    D T2601     291.590 250.914 227.493  1.00 44.45    -0.208 NA
ENDROOT
BRANCH   1   4
HETATM    4  C9    D T2601     292.240 252.147 229.480  1.00 45.99     0.059 A 
HETATM    5  C8    D T2601     293.619 251.992 229.860  1.00 46.02     0.004 A 
HETATM    6  C7    D T2601     293.989 252.048 231.233  1.00 47.49    -0.004 A 
HETATM    7  C6    D T2601     292.985 252.248 232.237  1.00 43.57    -0.014 A 
HETATM    8  C5    D T2601     291.604 252.400 231.838  1.00 47.11     0.038 A 
HETATM    9  C11   D T2601     293.387 252.304 233.704  1.00 43.74     0.032 C 
HETATM   10  C10   D T2601     291.262 252.349 230.477  1.00 47.17     0.013 A 
BRANCH   8  11
HETATM   11  C4    D T2601     290.543 252.607 232.807  1.00 52.56    -0.058 C 
HETATM   12  C3    D T2601     289.612 252.697 233.578  1.00 49.20    -0.039 C 
BRANCH  12  13
HETATM   13  C2    D T2601     288.551 252.919 234.452  1.00 38.17     0.145 A 
HETATM   14  N82   D T2601     288.617 253.027 235.799  1.00 38.45    -0.203 N 
HETATM   15  N81   D T2601     289.739 252.928 236.569  1.00 47.45    -0.162 NA
HETATM   16  C84   D T2601     287.294 253.251 236.211  1.00 43.62     0.165 A 
HETATM   17  C83   D T2601     289.474 253.074 237.865  1.00 47.13     0.121 A 
HETATM   18  C82   D T2601     288.198 253.305 238.437  1.00 45.79     0.026 A 
HETATM   19  C81   D T2601     287.102 253.396 237.611  1.00 45.43     0.041 A 
HETATM   20  N1    D T2601     286.483 253.276 235.184  1.00 46.40    -0.223 NA
HETATM   21  C1    D T2601     287.272 253.069 234.080  1.00 39.18     0.128 A 
ENDBRANCH  12  13
ENDBRANCH   8  11
ENDBRANCH   1   4
BRANCH   3  22
HETATM   22  C13   D T2601     291.148 250.683 226.168  1.00 46.23     0.085 A 
HETATM   23  C14   D T2601     292.109 250.609 225.136  1.00 47.02     0.019 A 
HETATM   24  C15   D T2601     291.700 250.371 223.786  1.00 48.51    -0.001 A 
HETATM   25  C16   D T2601     290.308 250.200 223.437  1.00 46.86     0.015 A 
HETATM   26  C17   D T2601     289.318 250.283 224.507  1.00 48.59     0.071 A 
HETATM   27  C18   D T2601     289.765 250.521 225.831  1.00 47.76     0.023 A 
BRANCH  25  28
HETATM   28  C20   D T2601     289.965 249.946 221.952  1.00 47.69     0.277 C 
BRANCH  28  29
HETATM   29  N3    D T2601     290.065 251.138 221.106  1.00 53.58     0.146 N 
HETATM   30  C21   D T2601     289.981 250.808 219.660  1.00 51.34     0.286 C 
HETATM   31  C22   D T2601     290.296 252.058 218.815  1.00 47.99     0.286 C 
HETATM   32  N4    D T2601     289.296 253.105 219.084  1.00 50.46     0.143 N 
HETATM   33  C23   D T2601     289.229 253.422 220.541  1.00 49.01     0.286 C 
HETATM   34  C25   D T2601     289.541 254.279 218.264  1.00 50.12     0.285 C 
HETATM   35  C24   D T2601     289.030 252.142 221.410  1.00 52.37     0.286 C 
ENDBRANCH  28  29
ENDBRANCH  25  28
BRANCH  26  36
HETATM   36  C19   D T2601     287.806 250.120 224.328  1.00 53.84     0.419 C 
HETATM   37  F1    D T2601     287.224 251.293 224.313  1.00 57.02    -0.166 F 
HETATM   38  F2    D T2601     287.494 249.507 223.197  1.00 55.32    -0.166 F 
HETATM   39  F3    D T2601     287.306 249.390 225.321  1.00 54.82    -0.166 F 
ENDBRANCH  26  36
ENDBRANCH   3  22
TORSDOF 7
ENDMDL
MODEL 4
REMARK VINA RESULT:      -7.9      3.805     12.500
REMARK  7 active torsions:
REMARK  status: ('A' for Active; 'I' for Inactive)
REMARK    1  A    between atoms: N3_2  and  C20_12 
REMARK    2  A    between atoms: C4_3  and  C5_4 
REMARK    3  A    between atoms: C13_9  and  N2_29 
REMARK    4  A    between atoms: C17_11  and  C19_33 
REMARK    5  A    between atoms: C20_12  and  C16_31 
REMARK    6  A    between atoms: C2_23  and  C3_24 
REMARK    7  A    between atoms: C9_25  and  C12_27 
REMARK       I    between atoms: C12_27  and  N2_29 
ROOT
HETATM    1  C12   D T2601     291.198 252.529 227.377  1.00 46.76     0.279 C 
HETATM    2  O1    D T2601     291.259 253.635 226.842  1.00 51.78    -0.265 OA
HETATM    3  N2    D T2601     290.875 251.402 226.725  1.00 44.45    -0.208 NA
ENDROOT
BRANCH   1   4
HETATM    4  C9    D T2601     291.516 252.427 228.830  1.00 45.99     0.059 A 
HETATM    5  C8    D T2601     292.855 252.376 229.356  1.00 46.02     0.004 A 
HETATM    6  C7    D T2601     293.064 252.288 230.761  1.00 47.49    -0.004 A 
HETATM    7  C6    D T2601     291.940 252.239 231.649  1.00 43.57    -0.014 A 
HETATM    8  C5    D T2601     290.602 252.289 231.105  1.00 47.11     0.038 A 
HETATM    9  C11   D T2601     292.170 252.142 233.152  1.00 43.74     0.032 C 
HETATM   10  C10   D T2601     290.418 252.383 229.715  1.00 47.17     0.013 A 
BRANCH   8  11
HETATM   11  C4    D T2601     289.425 252.244 231.953  1.00 52.56    -0.058 C 
HETATM   12  C3    D T2601     288.478 252.290 232.708  1.00 49.20    -0.039 C 
BRANCH  12  13
HETATM   13  C2    D T2601     287.392 252.223 233.578  1.00 38.17     0.145 A 
HETATM   14  N82   D T2601     287.373 252.581 234.883  1.00 38.45    -0.203 N 
HETATM   15  N81   D T2601     288.420 253.070 235.607  1.00 47.45    -0.162 NA
HETATM   16  C84   D T2601     286.059 252.330 235.309  1.00 43.62     0.165 A 
HETATM   17  C83   D T2601     288.084 253.323 236.869  1.00 47.13     0.121 A 
HETATM   18  C82   D T2601     286.806 253.125 237.450  1.00 45.79     0.026 A 
HETATM   19  C81   D T2601     285.787 252.629 236.670  1.00 45.43     0.041 A 
HETATM   20  N1    D T2601     285.334 251.853 234.329  1.00 46.40    -0.223 NA
HETATM   21  C1    D T2601     286.169 251.786 233.243  1.00 39.18     0.128 A 
ENDBRANCH  12  13
ENDBRANCH   8  11
ENDBRANCH   1   4
BRANCH   3  22
HETATM   22  C13   D T2601     290.549 251.301 225.351  1.00 46.23     0.085 A 
HETATM   23  C14   D T2601     291.472 250.682 224.479  1.00 47.02     0.019 A 
HETATM   24  C15   D T2601     291.175 250.557 223.085  1.00 48.51    -0.001 A 
HETATM   25  C16   D T2601     289.936 251.051 222.529  1.00 46.86     0.015 A 
HETATM   26  C17   D T2601     288.987 251.694 223.434  1.00 48.59     0.071 A 
HETATM   27  C18   D T2601     289.321 251.798 224.808  1.00 47.76     0.023 A 
BRANCH  25  28
HETATM   28  C20   D T2601     289.705 250.867 221.013  1.00 47.69     0.277 C 
BRANCH  28  29
HETATM   29  N3    D T2601     289.705 249.469 220.577  1.00 53.58     0.146 N 
HETATM   30  C21   D T2601     288.337 248.890 220.546  1.00 51.34     0.286 C 
HETATM   31  C22   D T2601     288.412 247.373 220.285  1.00 47.99     0.286 C 
HETATM   32  N4    D T2601     289.022 247.125 218.968  1.00 50.46     0.143 N 
HETATM   33  C23   D T2601     290.363 247.773 218.866  1.00 49.01     0.286 C 
HETATM   34  C25   D T2601     289.060 245.703 218.674  1.00 50.12     0.285 C 
HETATM   35  C24   D T2601     290.313 249.285 219.247  1.00 52.37     0.286 C 
ENDBRANCH  28  29
ENDBRANCH  25  28
BRANCH  26  36
HETATM   36  C19   D T2601     287.627 252.267 223.029  1.00 53.84     0.419 C 
HETATM   37  F1    D T2601     287.790 253.338 222.293  1.00 57.02    -0.166 F 
HETATM   38  F2    D T2601     286.905 251.408 222.325  1.00 55.32    -0.166 F 
HETATM   39  F3    D T2601     286.921 252.577 224.112  1.00 54.82    -0.166 F 
ENDBRANCH  26  36
ENDBRANCH   3  22
TORSDOF 7
ENDMDL
MODEL 5
REMARK VINA RESULT:      -7.7      3.937     12.629
REMARK  7 active torsions:
REMARK  status: ('A' for Active; 'I' for Inactive)
REMARK    1  A    between atoms: N3_2  and  C20_12 
REMARK    2  A    between atoms: C4_3  and  C5_4 
REMARK    3  A    between atoms: C13_9  and  N2_29 
REMARK    4  A    between atoms: C17_11  and  C19_33 
REMARK    5  A    between atoms: C20_12  and  C16_31 
REMARK    6  A    between atoms: C2_23  and  C3_24 
REMARK    7  A    between atoms: C9_25  and  C12_27 
REMARK       I    between atoms: C12_27  and  N2_29 
ROOT
HETATM    1  C12   D T2601     291.249 251.216 228.056  1.00 46.76     0.279 C 
HETATM    2  O1    D T2601     290.753 252.122 227.388  1.00 51.78    -0.265 OA
HETATM    3  N2    D T2601     291.387 249.955 227.616  1.00 44.45    -0.208 NA
ENDROOT
BRANCH   1   4
HETATM    4  C9    D T2601     291.740 251.533 229.427  1.00 45.99     0.059 A 
HETATM    5  C8    D T2601     293.132 251.624 229.779  1.00 46.02     0.004 A 
HETATM    6  C7    D T2601     293.509 251.942 231.113  1.00 47.49    -0.004 A 
HETATM    7  C6    D T2601     292.501 252.161 232.109  1.00 43.57    -0.014 A 
HETATM    8  C5    D T2601     291.107 252.063 231.739  1.00 47.11     0.038 A 
HETATM    9  C11   D T2601     292.911 252.499 233.536  1.00 43.74     0.032 C 
HETATM   10  C10   D T2601     290.756 251.755 230.414  1.00 47.17     0.013 A 
BRANCH   8  11
HETATM   11  C4    D T2601     290.041 252.275 232.702  1.00 52.56    -0.058 C 
HETATM   12  C3    D T2601     289.115 252.524 233.443  1.00 49.20    -0.039 C 
BRANCH  12  13
HETATM   13  C2    D T2601     288.126 252.790 234.388  1.00 38.17     0.145 A 
HETATM   14  N82   D T2601     288.297 252.949 235.720  1.00 38.45    -0.203 N 
HETATM   15  N81   D T2601     289.475 252.869 236.405  1.00 47.45    -0.162 NA
HETATM   16  C84   D T2601     287.012 253.202 236.224  1.00 43.62     0.165 A 
HETATM   17  C83   D T2601     289.312 253.067 237.710  1.00 47.13     0.121 A 
HETATM   18  C82   D T2601     288.086 253.332 238.370  1.00 45.79     0.026 A 
HETATM   19  C81   D T2601     286.929 253.402 237.627  1.00 45.43     0.041 A 
HETATM   20  N1    D T2601     286.124 253.195 235.262  1.00 46.40    -0.223 NA
HETATM   21  C1    D T2601     286.823 252.938 234.109  1.00 39.18     0.128 A 
ENDBRANCH  12  13
ENDBRANCH   8  11
ENDBRANCH   1   4
BRANCH   3  22
HETATM   22  C13   D T2601     290.988 249.469 226.348  1.00 46.23     0.085 A 
HETATM   23  C14   D T2601     289.699 248.909 226.212  1.00 47.02     0.019 A 
HETATM   24  C15   D T2601     289.258 248.412 224.945  1.00 48.51    -0.001 A 
HETATM   25  C16   D T2601     290.105 248.466 223.776  1.00 46.86     0.015 A 
HETATM   26  C17   D T2601     291.440 249.041 223.923  1.00 48.59     0.071 A 
HETATM   27  C18   D T2601     291.837 249.521 225.196  1.00 47.76     0.023 A 
BRANCH  25  28
HETATM   28  C20   D T2601     289.540 247.906 222.452  1.00 47.69     0.277 C 
BRANCH  28  29
HETATM   29  N3    D T2601     288.354 248.615 221.965  1.00 53.58     0.146 N 
HETATM   30  C21   D T2601     288.632 250.048 221.689  1.00 51.34     0.286 C 
HETATM   31  C22   D T2601     287.317 250.791 221.381  1.00 47.99     0.286 C 
HETATM   32  N4    D T2601     286.698 250.224 220.172  1.00 50.46     0.143 N 
HETATM   33  C23   D T2601     286.485 248.753 220.316  1.00 49.01     0.286 C 
HETATM   34  C25   D T2601     285.479 250.938 219.830  1.00 50.12     0.285 C 
HETATM   35  C24   D T2601     287.788 248.012 220.745  1.00 52.37     0.286 C 
ENDBRANCH  28  29
ENDBRANCH  25  28
BRANCH  26  36
HETATM   36  C19   D T2601     292.468 249.189 222.798  1.00 53.84     0.419 C 
HETATM   37  F1    D T2601     292.720 248.021 222.262  1.00 57.02    -0.166 F 
HETATM   38  F2    D T2601     292.048 249.988 221.830  1.00 55.32    -0.166 F 
HETATM   39  F3    D T2601     293.594 249.710 223.276  1.00 54.82    -0.166 F 
ENDBRANCH  26  36
ENDBRANCH   3  22
TORSDOF 7
ENDMDL
MODEL 6
REMARK VINA RESULT:      -7.7      3.432     12.217
REMARK  7 active torsions:
REMARK  status: ('A' for Active; 'I' for Inactive)
REMARK    1  A    between atoms: N3_2  and  C20_12 
REMARK    2  A    between atoms: C4_3  and  C5_4 
REMARK    3  A    between atoms: C13_9  and  N2_29 
REMARK    4  A    between atoms: C17_11  and  C19_33 
REMARK    5  A    between atoms: C20_12  and  C16_31 
REMARK    6  A    between atoms: C2_23  and  C3_24 
REMARK    7  A    between atoms: C9_25  and  C12_27 
REMARK       I    between atoms: C12_27  and  N2_29 
ROOT
HETATM    1  C12   D T2601     292.798 250.402 228.643  1.00 46.76     0.279 C 
HETATM    2  O1    D T2601     293.745 250.102 227.917  1.00 51.78    -0.265 OA
HETATM    3  N2    D T2601     291.513 250.314 228.266  1.00 44.45    -0.208 NA
ENDROOT
BRANCH   1   4
HETATM    4  C9    D T2601     293.087 250.875 230.026  1.00 45.99     0.059 A 
HETATM    5  C8    D T2601     294.409 250.934 230.593  1.00 46.02     0.004 A 
HETATM    6  C7    D T2601     294.592 251.411 231.921  1.00 47.49    -0.004 A 
HETATM    7  C6    D T2601     293.458 251.821 232.697  1.00 43.57    -0.014 A 
HETATM    8  C5    D T2601     292.137 251.753 232.113  1.00 47.11     0.038 A 
HETATM    9  C11   D T2601     293.660 252.327 234.119  1.00 43.74     0.032 C 
HETATM   10  C10   D T2601     291.979 251.286 230.797  1.00 47.17     0.013 A 
BRANCH   8  11
HETATM   11  C4    D T2601     290.951 252.154 232.848  1.00 52.56    -0.058 C 
HETATM   12  C3    D T2601     290.013 252.471 233.546  1.00 49.20    -0.039 C 
BRANCH  12  13
HETATM   13  C2    D T2601     288.863 252.784 234.267  1.00 38.17     0.145 A 
HETATM   14  N82   D T2601     288.754 252.907 235.610  1.00 38.45    -0.203 N 
HETATM   15  N81   D T2601     289.750 252.737 236.526  1.00 47.45    -0.162 NA
HETATM   16  C84   D T2601     287.408 253.234 235.836  1.00 43.62     0.165 A 
HETATM   17  C83   D T2601     289.324 252.922 237.772  1.00 47.13     0.121 A 
HETATM   18  C82   D T2601     288.003 253.255 238.165  1.00 45.79     0.026 A 
HETATM   19  C81   D T2601     287.039 253.414 237.196  1.00 45.43     0.041 A 
HETATM   20  N1    D T2601     286.748 253.303 234.708  1.00 46.40    -0.223 NA
HETATM   21  C1    D T2601     287.660 253.022 233.723  1.00 39.18     0.128 A 
ENDBRANCH  12  13
ENDBRANCH   8  11
ENDBRANCH   1   4
BRANCH   3  22
HETATM   22  C13   D T2601     291.045 249.883 227.001  1.00 46.23     0.085 A 
HETATM   23  C14   D T2601     290.776 250.853 226.011  1.00 47.02     0.019 A 
HETATM   24  C15   D T2601     290.307 250.455 224.719  1.00 48.51    -0.001 A 
HETATM   25  C16   D T2601     290.097 249.065 224.387  1.00 46.86     0.015 A 
HETATM   26  C17   D T2601     290.372 248.065 225.416  1.00 48.59     0.071 A 
HETATM   27  C18   D T2601     290.834 248.502 226.683  1.00 47.76     0.023 A 
BRANCH  25  28
HETATM   28  C20   D T2601     289.591 248.734 222.966  1.00 47.69     0.277 C 
BRANCH  28  29
HETATM   29  N3    D T2601     289.079 249.894 222.232  1.00 53.58     0.146 N 
HETATM   30  C21   D T2601     289.386 249.820 220.781  1.00 51.34     0.286 C 
HETATM   31  C22   D T2601     289.014 251.148 220.094  1.00 47.99     0.286 C 
HETATM   32  N4    D T2601     287.567 251.386 220.223  1.00 50.46     0.143 N 
HETATM   33  C23   D T2601     287.143 251.362 221.654  1.00 49.01     0.286 C 
HETATM   34  C25   D T2601     287.179 252.609 219.542  1.00 50.12     0.285 C 
HETATM   35  C24   D T2601     287.624 250.071 222.386  1.00 52.37     0.286 C 
ENDBRANCH  28  29
ENDBRANCH  25  28
BRANCH  26  36
HETATM   36  C19   D T2601     290.216 246.552 225.244  1.00 53.84     0.419 C 
HETATM   37  F1    D T2601     290.968 246.130 224.257  1.00 57.02    -0.166 F 
HETATM   38  F2    D T2601     290.570 245.880 226.328  1.00 55.32    -0.166 F 
HETATM   39  F3    D T2601     288.946 246.250 224.993  1.00 54.82    -0.166 F 
ENDBRANCH  26  36
ENDBRANCH   3  22
TORSDOF 7
ENDMDL
MODEL 7
REMARK VINA RESULT:      -7.7      3.155     12.302
REMARK  7 active torsions:
REMARK  status: ('A' for Active; 'I' for Inactive)
REMARK    1  A    between atoms: N3_2  and  C20_12 
REMARK    2  A    between atoms: C4_3  and  C5_4 
REMARK    3  A    between atoms: C13_9  and  N2_29 
REMARK    4  A    between atoms: C17_11  and  C19_33 
REMARK    5  A    between atoms: C20_12  and  C16_31 
REMARK    6  A    between atoms: C2_23  and  C3_24 
REMARK    7  A    between atoms: C9_25  and  C12_27 
REMARK       I    between atoms: C12_27  and  N2_29 
ROOT
HETATM    1  C12   D T2601     291.496 251.229 228.993  1.00 46.76     0.279 C 
HETATM    2  O1    D T2601     290.325 251.604 228.953  1.00 51.78    -0.265 OA
HETATM    3  N2    D T2601     292.079 250.500 228.028  1.00 44.45    -0.208 NA
ENDROOT
BRANCH   1   4
HETATM    4  C9    D T2601     292.324 251.616 230.170  1.00 45.99     0.059 A 
HETATM    5  C8    D T2601     293.748 251.817 230.116  1.00 46.02     0.004 A 
HETATM    6  C7    D T2601     294.458 252.197 231.290  1.00 47.49    -0.004 A 
HETATM    7  C6    D T2601     293.753 252.368 232.527  1.00 43.57    -0.014 A 
HETATM    8  C5    D T2601     292.323 252.160 232.564  1.00 47.11     0.038 A 
HETATM    9  C11   D T2601     294.518 252.771 233.780  1.00 43.74     0.032 C 
HETATM   10  C10   D T2601     291.641 251.792 231.392  1.00 47.17     0.013 A 
BRANCH   8  11
HETATM   11  C4    D T2601     291.555 252.319 233.786  1.00 52.56    -0.058 C 
HETATM   12  C3    D T2601     290.831 252.461 234.747  1.00 49.20    -0.039 C 
BRANCH  12  13
HETATM   13  C2    D T2601     290.089 252.687 235.904  1.00 38.17     0.145 A 
HETATM   14  N82   D T2601     288.744 252.614 236.033  1.00 38.45    -0.203 N 
HETATM   15  N81   D T2601     287.848 252.313 235.050  1.00 47.45    -0.162 NA
HETATM   16  C84   D T2601     288.491 252.919 237.380  1.00 43.62     0.165 A 
HETATM   17  C83   D T2601     286.593 252.327 235.491  1.00 47.13     0.121 A 
HETATM   18  C82   D T2601     286.175 252.614 236.815  1.00 45.79     0.026 A 
HETATM   19  C81   D T2601     287.125 252.910 237.766  1.00 45.43     0.041 A 
HETATM   20  N1    D T2601     289.607 253.161 238.021  1.00 46.40    -0.223 NA
HETATM   21  C1    D T2601     290.609 253.015 237.096  1.00 39.18     0.128 A 
ENDBRANCH  12  13
ENDBRANCH   8  11
ENDBRANCH   1   4
BRANCH   3  22
HETATM   22  C13   D T2601     291.458 250.044 226.840  1.00 46.23     0.085 A 
HETATM   23  C14   D T2601     291.506 250.865 225.692  1.00 47.02     0.019 A 
HETATM   24  C15   D T2601     290.895 250.435 224.472  1.00 48.51    -0.001 A 
HETATM   25  C16   D T2601     290.217 249.163 224.374  1.00 46.86     0.015 A 
HETATM   26  C17   D T2601     290.164 248.320 225.566  1.00 48.59     0.071 A 
HETATM   27  C18   D T2601     290.782 248.784 226.754  1.00 47.76     0.023 A 
BRANCH  25  28
HETATM   28  C20   D T2601     289.589 248.786 223.014  1.00 47.69     0.277 C 
BRANCH  28  29
HETATM   29  N3    D T2601     289.083 249.932 222.254  1.00 53.58     0.146 N 
HETATM   30  C21   D T2601     289.088 249.681 220.790  1.00 51.34     0.286 C 
HETATM   31  C22   D T2601     288.747 250.979 220.031  1.00 47.99     0.286 C 
HETATM   32  N4    D T2601     287.392 251.425 220.395  1.00 50.46     0.143 N 
HETATM   33  C23   D T2601     287.260 251.594 221.872  1.00 49.01     0.286 C 
HETATM   34  C25   D T2601     287.025 252.621 219.656  1.00 50.12     0.285 C 
HETATM   35  C24   D T2601     287.719 250.323 222.650  1.00 52.37     0.286 C 
ENDBRANCH  28  29
ENDBRANCH  25  28
BRANCH  26  36
HETATM   36  C19   D T2601     289.500 246.944 225.647  1.00 53.84     0.419 C 
HETATM   37  F1    D T2601     288.386 247.021 226.332  1.00 57.02    -0.166 F 
HETATM   38  F2    D T2601     289.199 246.456 224.454  1.00 55.32    -0.166 F 
HETATM   39  F3    D T2601     290.320 246.075 226.231  1.00 54.82    -0.166 F 
ENDBRANCH  26  36
ENDBRANCH   3  22
TORSDOF 7
ENDMDL
MODEL 8
REMARK VINA RESULT:      -7.5      1.642      2.363
REMARK  7 active torsions:
REMARK  status: ('A' for Active; 'I' for Inactive)
REMARK    1  A    between atoms: N3_2  and  C20_12 
REMARK    2  A    between atoms: C4_3  and  C5_4 
REMARK    3  A    between atoms: C13_9  and  N2_29 
REMARK    4  A    between atoms: C17_11  and  C19_33 
REMARK    5  A    between atoms: C20_12  and  C16_31 
REMARK    6  A    between atoms: C2_23  and  C3_24 
REMARK    7  A    between atoms: C9_25  and  C12_27 
REMARK       I    between atoms: C12_27  and  N2_29 
ROOT
HETATM    1  C12   D T2601     292.935 250.136 229.982  1.00 46.76     0.279 C 
HETATM    2  O1    D T2601     293.684 249.807 230.901  1.00 51.78    -0.265 OA
HETATM    3  N2    D T2601     291.884 250.956 230.135  1.00 44.45    -0.208 NA
ENDROOT
BRANCH   1   4
HETATM    4  C9    D T2601     293.214 249.609 228.616  1.00 45.99     0.059 A 
HETATM    5  C8    D T2601     294.428 248.928 228.253  1.00 46.02     0.004 A 
HETATM    6  C7    D T2601     294.605 248.449 226.925  1.00 47.49    -0.004 A 
HETATM    7  C6    D T2601     293.577 248.657 225.947  1.00 43.57    -0.014 A 
HETATM    8  C5    D T2601     292.365 249.345 226.328  1.00 47.11     0.038 A 
HETATM    9  C11   D T2601     293.774 248.145 224.527  1.00 43.74     0.032 C 
HETATM   10  C10   D T2601     292.208 249.803 227.647  1.00 47.17     0.013 A 
BRANCH   8  11
HETATM   11  C4    D T2601     291.289 249.585 225.383  1.00 52.56    -0.058 C 
HETATM   12  C3    D T2601     290.430 249.710 224.537  1.00 49.20    -0.039 C 
BRANCH  12  13
HETATM   13  C2    D T2601     289.447 249.974 223.586  1.00 38.17     0.145 A 
HETATM   14  N82   D T2601     288.740 251.118 223.444  1.00 38.45    -0.203 N 
HETATM   15  N81   D T2601     288.844 252.240 224.214  1.00 47.45    -0.162 NA
HETATM   16  C84   D T2601     287.889 250.886 222.352  1.00 43.62     0.165 A 
HETATM   17  C83   D T2601     288.006 253.196 223.824  1.00 47.13     0.121 A 
HETATM   18  C82   D T2601     287.089 253.118 222.746  1.00 45.79     0.026 A 
HETATM   19  C81   D T2601     287.029 251.961 222.004  1.00 45.43     0.041 A 
HETATM   20  N1    D T2601     288.069 249.684 221.867  1.00 46.40    -0.223 NA
HETATM   21  C1    D T2601     289.047 249.111 222.640  1.00 39.18     0.128 A 
ENDBRANCH  12  13
ENDBRANCH   8  11
ENDBRANCH   1   4
BRANCH   3  22
HETATM   22  C13   D T2601     291.466 251.556 231.348  1.00 46.23     0.085 A 
HETATM   23  C14   D T2601     292.356 252.426 232.016  1.00 47.02     0.019 A 
HETATM   24  C15   D T2601     291.968 253.054 233.240  1.00 48.51    -0.001 A 
HETATM   25  C16   D T2601     290.668 252.825 233.828  1.00 46.86     0.015 A 
HETATM   26  C17   D T2601     289.753 251.921 233.137  1.00 48.59     0.071 A 
HETATM   27  C18   D T2601     290.178 251.318 231.926  1.00 47.76     0.023 A 
BRANCH  25  28
HETATM   28  C20   D T2601     290.339 253.551 235.152  1.00 47.69     0.277 C 
BRANCH  28  29
HETATM   29  N3    D T2601     290.417 252.691 236.336  1.00 53.58     0.146 N 
HETATM   30  C21   D T2601     291.816 252.485 236.789  1.00 51.34     0.286 C 
HETATM   31  C22   D T2601     291.860 251.417 237.899  1.00 47.99     0.286 C 
HETATM   32  N4    D T2601     291.087 251.880 239.064  1.00 50.46     0.143 N 
HETATM   33  C23   D T2601     289.686 252.223 238.677  1.00 49.01     0.286 C 
HETATM   34  C25   D T2601     291.151 250.913 240.146  1.00 50.12     0.285 C 
HETATM   35  C24   D T2601     289.637 253.212 237.473  1.00 52.37     0.286 C 
ENDBRANCH  28  29
ENDBRANCH  25  28
BRANCH  26  36
HETATM   36  C19   D T2601     288.339 251.566 233.603  1.00 53.84     0.419 C 
HETATM   37  F1    D T2601     287.603 252.647 233.674  1.00 57.02    -0.166 F 
HETATM   38  F2    D T2601     287.731 250.725 232.781  1.00 55.32    -0.166 F 
HETATM   39  F3    D T2601     288.385 250.982 234.797  1.00 54.82    -0.166 F 
ENDBRANCH  26  36
ENDBRANCH   3  22
TORSDOF 7
ENDMDL
MODEL 9
REMARK VINA RESULT:      -7.4      2.209      3.068
REMARK  7 active torsions:
REMARK  status: ('A' for Active; 'I' for Inactive)
REMARK    1  A    between atoms: N3_2  and  C20_12 
REMARK    2  A    between atoms: C4_3  and  C5_4 
REMARK    3  A    between atoms: C13_9  and  N2_29 
REMARK    4  A    between atoms: C17_11  and  C19_33 
REMARK    5  A    between atoms: C20_12  and  C16_31 
REMARK    6  A    between atoms: C2_23  and  C3_24 
REMARK    7  A    between atoms: C9_25  and  C12_27 
REMARK       I    between atoms: C12_27  and  N2_29 
ROOT
HETATM    1  C12   D T2601     291.831 250.940 227.645  1.00 46.76     0.279 C 
HETATM    2  O1    D T2601     290.658 250.738 227.958  1.00 51.78    -0.265 OA
HETATM    3  N2    D T2601     292.774 251.344 228.509  1.00 44.45    -0.208 NA
ENDROOT
BRANCH   1   4
HETATM    4  C9    D T2601     292.235 250.709 226.229  1.00 45.99     0.059 A 
HETATM    5  C8    D T2601     293.528 250.213 225.836  1.00 46.02     0.004 A 
HETATM    6  C7    D T2601     293.824 250.013 224.458  1.00 47.49    -0.004 A 
HETATM    7  C6    D T2601     292.836 250.316 223.463  1.00 43.57    -0.014 A 
HETATM    8  C5    D T2601     291.544 250.815 223.875  1.00 47.11     0.038 A 
HETATM    9  C11   D T2601     293.160 250.102 221.991  1.00 43.74     0.032 C 
HETATM   10  C10   D T2601     291.270 250.998 225.241  1.00 47.17     0.013 A 
BRANCH   8  11
HETATM   11  C4    D T2601     290.504 251.138 222.915  1.00 52.56    -0.058 C 
HETATM   12  C3    D T2601     289.586 251.455 222.190  1.00 49.20    -0.039 C 
BRANCH  12  13
HETATM   13  C2    D T2601     288.545 251.713 221.301  1.00 38.17     0.145 A 
HETATM   14  N82   D T2601     287.513 250.893 221.000  1.00 38.45    -0.203 N 
HETATM   15  N81   D T2601     287.292 249.644 221.502  1.00 47.45    -0.162 NA
HETATM   16  C84   D T2601     286.742 251.607 220.068  1.00 43.62     0.165 A 
HETATM   17  C83   D T2601     286.190 249.090 221.004  1.00 47.13     0.121 A 
HETATM   18  C82   D T2601     285.311 249.676 220.060  1.00 45.79     0.026 A 
HETATM   19  C81   D T2601     285.583 250.940 219.589  1.00 45.43     0.041 A 
HETATM   20  N1    D T2601     287.274 252.777 219.821  1.00 46.40    -0.223 NA
HETATM   21  C1    D T2601     288.405 252.845 220.595  1.00 39.18     0.128 A 
ENDBRANCH  12  13
ENDBRANCH   8  11
ENDBRANCH   1   4
BRANCH   3  22
HETATM   22  C13   D T2601     292.583 251.609 229.886  1.00 46.23     0.085 A 
HETATM   23  C14   D T2601     292.177 252.904 230.278  1.00 47.02     0.019 A 
HETATM   24  C15   D T2601     291.968 253.207 231.660  1.00 48.51    -0.001 A 
HETATM   25  C16   D T2601     292.161 252.212 232.689  1.00 46.86     0.015 A 
HETATM   26  C17   D T2601     292.585 250.875 232.280  1.00 48.59     0.071 A 
HETATM   27  C18   D T2601     292.782 250.617 230.900  1.00 47.76     0.023 A 
BRANCH  25  28
HETATM   28  C20   D T2601     291.908 252.633 234.154  1.00 47.69     0.277 C 
BRANCH  28  29
HETATM   29  N3    D T2601     290.503 252.922 234.455  1.00 53.58     0.146 N 
HETATM   30  C21   D T2601     289.591 251.870 233.937  1.00 51.34     0.286 C 
HETATM   31  C22   D T2601     288.125 252.319 234.094  1.00 47.99     0.286 C 
HETATM   32  N4    D T2601     287.813 252.505 235.521  1.00 50.46     0.143 N 
HETATM   33  C23   D T2601     288.760 253.467 236.158  1.00 49.01     0.286 C 
HETATM   34  C25   D T2601     286.422 252.881 235.703  1.00 50.12     0.285 C 
HETATM   35  C24   D T2601     290.249 253.082 235.898  1.00 52.37     0.286 C 
ENDBRANCH  28  29
ENDBRANCH  25  28
BRANCH  26  36
HETATM   36  C19   D T2601     292.830 249.696 233.225  1.00 53.84     0.419 C 
HETATM   37  F1    D T2601     293.922 249.894 233.920  1.00 57.02    -0.166 F 
HETATM   38  F2    D T2601     291.838 249.524 234.086  1.00 55.32    -0.166 F 
HETATM   39  F3    D T2601     292.944 248.570 232.529  1.00 54.82    -0.166 F 
ENDBRANCH  26  36
ENDBRANCH   3  22
TORSDOF 7
ENDMDL
