MODEL 1
REMARK VINA RESULT:    -8.900      0.000      0.000
REMARK INTER + INTRA:         -13.781
REMARK INTER:                 -12.542
REMARK INTRA:                  -1.239
REMARK UNBOUND:                -1.239
REMARK  7 active torsions:
REMARK  status: ('A' for Active; 'I' for Inactive)
REMARK    1  A    between atoms: N3_2  and  C20_12 
REMARK    2  A    between atoms: C4_3  and  C5_4 
REMARK    3  A    between atoms: C13_9  and  N2_29 
REMARK    4  A    between atoms: C17_11  and  C19_33 
REMARK    5  A    between atoms: C20_12  and  C16_31 
REMARK    6  A    between atoms: C2_23  and  C3_24 
REMARK    7  A    between atoms: C9_25  and  C12_27 
REMARK       I    between atoms: C12_27  and  N2_29 
ROOT
HETATM    1  C12   D T2601     292.031 251.945 236.118  1.00 46.76     0.279 C 
HETATM    2  O1    D T2601     292.928 251.765 236.940  1.00 51.78    -0.265 OA
HETATM    3  N2    D T2601     292.182 251.764 234.797  1.00 44.45    -0.208 NA
ENDROOT
BRANCH   1   4
HETATM    4  C9    D T2601     290.692 252.374 236.614  1.00 45.99     0.059 A 
HETATM    5  C8    D T2601     290.403 252.664 237.993  1.00 46.02     0.004 A 
HETATM    6  C7    D T2601     289.096 253.076 238.375  1.00 47.49    -0.004 A 
HETATM    7  C6    D T2601     288.065 253.192 237.385  1.00 43.57    -0.014 A 
HETATM    8  C5    D T2601     288.371 252.895 236.004  1.00 47.11     0.038 A 
HETATM    9  C11   D T2601     286.667 253.632 237.800  1.00 43.74     0.032 C 
HETATM   10  C10   D T2601     289.670 252.496 235.648  1.00 47.17     0.013 A 
BRANCH   8  11
HETATM   11  C4    D T2601     287.371 252.995 234.957  1.00 52.56    -0.058 C 
HETATM   12  C3    D T2601     286.564 252.986 234.052  1.00 49.20    -0.039 C 
BRANCH  12  13
HETATM   13  C2    D T2601     285.660 253.092 232.998  1.00 38.17     0.145 A 
HETATM   14  N82   D T2601     285.035 252.077 232.359  1.00 38.45    -0.203 N 
HETATM   15  N81   D T2601     285.175 250.744 232.615  1.00 47.45    -0.162 NA
HETATM   16  C84   D T2601     284.232 252.698 231.389  1.00 43.62     0.165 A 
HETATM   17  C83   D T2601     284.428 249.996 231.809  1.00 47.13     0.121 A 
HETATM   18  C82   D T2601     283.570 250.468 230.784  1.00 45.79     0.026 A 
HETATM   19  C81   D T2601     283.467 251.824 230.572  1.00 45.43     0.041 A 
HETATM   20  N1    D T2601     284.363 254.000 231.438  1.00 46.40    -0.223 NA
HETATM   21  C1    D T2601     285.258 254.247 232.448  1.00 39.18     0.128 A 
ENDBRANCH  12  13
ENDBRANCH   8  11
ENDBRANCH   1   4
BRANCH   3  22
HETATM   22  C13   D T2601     293.371 251.357 234.144  1.00 46.23     0.085 A 
HETATM   23  C14   D T2601     293.557 249.984 233.870  1.00 47.02     0.019 A 
HETATM   24  C15   D T2601     294.743 249.536 233.207  1.00 48.51    -0.001 A 
HETATM   25  C16   D T2601     295.776 250.460 232.800  1.00 46.86     0.015 A 
HETATM   26  C17   D T2601     295.581 251.878 233.090  1.00 48.59     0.071 A 
HETATM   27  C18   D T2601     294.392 252.280 233.749  1.00 47.76     0.023 A 
BRANCH  25  28
HETATM   28  C20   D T2601     297.019 249.881 232.088  1.00 47.69     0.277 C 
BRANCH  28  29
HETATM   29  N3    D T2601     296.841 248.509 231.605  1.00 53.58     0.146 N 
HETATM   30  C21   D T2601     296.909 248.424 230.123  1.00 51.34     0.286 C 
HETATM   31  C22   D T2601     296.513 247.008 229.658  1.00 47.99     0.286 C 
HETATM   32  N4    D T2601     297.465 246.024 230.197  1.00 50.46     0.143 N 
HETATM   33  C23   D T2601     297.550 246.116 231.685  1.00 49.01     0.286 C 
HETATM   34  C25   D T2601     297.144 244.684 229.734  1.00 50.12     0.285 C 
HETATM   35  C24   D T2601     297.832 247.573 232.166  1.00 52.37     0.286 C 
ENDBRANCH  28  29
ENDBRANCH  25  28
BRANCH  26  36
HETATM   36  C19   D T2601     296.559 252.999 232.728  1.00 53.84     0.419 C 
HETATM   37  F1    D T2601     296.673 253.094 231.426  1.00 57.02    -0.166 F 
HETATM   38  F2    D T2601     296.166 254.179 233.180  1.00 55.32    -0.166 F 
HETATM   39  F3    D T2601     297.752 252.752 233.260  1.00 54.82    -0.166 F 
ENDBRANCH  26  36
ENDBRANCH   3  22
TORSDOF 7
ENDMDL
MODEL 2
REMARK VINA RESULT:    -8.852      7.197     10.039
REMARK INTER + INTRA:         -13.713
REMARK INTER:                 -12.569
REMARK INTRA:                  -1.145
REMARK UNBOUND:                -1.239
REMARK  7 active torsions:
REMARK  status: ('A' for Active; 'I' for Inactive)
REMARK    1  A    between atoms: N3_2  and  C20_12 
REMARK    2  A    between atoms: C4_3  and  C5_4 
REMARK    3  A    between atoms: C13_9  and  N2_29 
REMARK    4  A    between atoms: C17_11  and  C19_33 
REMARK    5  A    between atoms: C20_12  and  C16_31 
REMARK    6  A    between atoms: C2_23  and  C3_24 
REMARK    7  A    between atoms: C9_25  and  C12_27 
REMARK       I    between atoms: C12_27  and  N2_29 
ROOT
HETATM    1  C12   D T2601     291.073 252.027 228.775  1.00 46.76     0.279 C 
HETATM    2  O1    D T2601     290.753 253.213 228.712  1.00 51.78    -0.265 OA
HETATM    3  N2    D T2601     291.162 251.339 229.924  1.00 44.45    -0.208 NA
ENDROOT
BRANCH   1   4
HETATM    4  C9    D T2601     291.366 251.303 227.505  1.00 45.99     0.059 A 
HETATM    5  C8    D T2601     292.418 250.333 227.360  1.00 46.02     0.004 A 
HETATM    6  C7    D T2601     292.619 249.683 226.110  1.00 47.49    -0.004 A 
HETATM    7  C6    D T2601     291.777 250.003 224.995  1.00 43.57    -0.014 A 
HETATM    8  C5    D T2601     290.726 250.982 225.157  1.00 47.11     0.038 A 
HETATM    9  C11   D T2601     291.998 249.306 223.659  1.00 43.74     0.032 C 
HETATM   10  C10   D T2601     290.541 251.607 226.401  1.00 47.17     0.013 A 
BRANCH   8  11
HETATM   11  C4    D T2601     289.842 251.348 224.065  1.00 52.56    -0.058 C 
HETATM   12  C3    D T2601     289.026 251.636 223.216  1.00 49.20    -0.039 C 
BRANCH  12  13
HETATM   13  C2    D T2601     288.160 251.914 222.161  1.00 38.17     0.145 A 
HETATM   14  N82   D T2601     287.341 251.042 221.531  1.00 38.45    -0.203 N 
HETATM   15  N81   D T2601     287.209 249.711 221.799  1.00 47.45    -0.162 NA
HETATM   16  C84   D T2601     286.680 251.804 220.555  1.00 43.62     0.165 A 
HETATM   17  C83   D T2601     286.324 249.122 221.000  1.00 47.13     0.121 A 
HETATM   18  C82   D T2601     285.578 249.750 219.971  1.00 45.79     0.026 A 
HETATM   19  C81   D T2601     285.753 251.097 219.746  1.00 45.43     0.041 A 
HETATM   20  N1    D T2601     287.074 253.052 220.592  1.00 46.40    -0.223 NA
HETATM   21  C1    D T2601     288.002 253.122 221.600  1.00 39.18     0.128 A 
ENDBRANCH  12  13
ENDBRANCH   8  11
ENDBRANCH   1   4
BRANCH   3  22
HETATM   22  C13   D T2601     290.918 251.852 231.221  1.00 46.23     0.085 A 
HETATM   23  C14   D T2601     291.922 252.624 231.845  1.00 47.02     0.019 A 
HETATM   24  C15   D T2601     291.710 253.163 233.152  1.00 48.51    -0.001 A 
HETATM   25  C16   D T2601     290.476 252.939 233.871  1.00 46.86     0.015 A 
HETATM   26  C17   D T2601     289.442 252.136 233.224  1.00 48.59     0.071 A 
HETATM   27  C18   D T2601     289.694 251.620 231.927  1.00 47.76     0.023 A 
BRANCH  25  28
HETATM   28  C20   D T2601     290.339 253.564 235.277  1.00 47.69     0.277 C 
BRANCH  28  29
HETATM   29  N3    D T2601     290.630 252.635 236.371  1.00 53.58     0.146 N 
HETATM   30  C21   D T2601     292.090 252.443 236.571  1.00 51.34     0.286 C 
HETATM   31  C22   D T2601     292.339 251.309 237.585  1.00 47.99     0.286 C 
HETATM   32  N4    D T2601     291.762 251.673 238.890  1.00 50.46     0.143 N 
HETATM   33  C23   D T2601     290.310 251.997 238.764  1.00 49.01     0.286 C 
HETATM   34  C25   D T2601     292.025 250.642 239.879  1.00 50.12     0.285 C 
HETATM   35  C24   D T2601     290.041 253.059 237.653  1.00 52.37     0.286 C 
ENDBRANCH  28  29
ENDBRANCH  25  28
BRANCH  26  36
HETATM   36  C19   D T2601     288.074 251.803 233.825  1.00 53.84     0.419 C 
HETATM   37  F1    D T2601     287.412 252.905 234.076  1.00 57.02    -0.166 F 
HETATM   38  F2    D T2601     287.330 251.068 233.013  1.00 55.32    -0.166 F 
HETATM   39  F3    D T2601     288.228 251.111 234.950  1.00 54.82    -0.166 F 
ENDBRANCH  26  36
ENDBRANCH   3  22
TORSDOF 7
ENDMDL
MODEL 3
REMARK VINA RESULT:    -8.580      7.129     10.039
REMARK INTER + INTRA:         -13.331
REMARK INTER:                 -12.431
REMARK INTRA:                  -0.900
REMARK UNBOUND:                -1.239
REMARK  7 active torsions:
REMARK  status: ('A' for Active; 'I' for Inactive)
REMARK    1  A    between atoms: N3_2  and  C20_12 
REMARK    2  A    between atoms: C4_3  and  C5_4 
REMARK    3  A    between atoms: C13_9  and  N2_29 
REMARK    4  A    between atoms: C17_11  and  C19_33 
REMARK    5  A    between atoms: C20_12  and  C16_31 
REMARK    6  A    between atoms: C2_23  and  C3_24 
REMARK    7  A    between atoms: C9_25  and  C12_27 
REMARK       I    between atoms: C12_27  and  N2_29 
ROOT
HETATM    1  C12   D T2601     291.315 252.571 228.998  1.00 46.76     0.279 C 
HETATM    2  O1    D T2601     290.727 253.652 228.997  1.00 51.78    -0.265 OA
HETATM    3  N2    D T2601     291.480 251.813 230.093  1.00 44.45    -0.208 NA
ENDROOT
BRANCH   1   4
HETATM    4  C9    D T2601     291.865 252.063 227.709  1.00 45.99     0.059 A 
HETATM    5  C8    D T2601     293.269 251.881 227.454  1.00 46.02     0.004 A 
HETATM    6  C7    D T2601     293.704 251.379 226.195  1.00 47.49    -0.004 A 
HETATM    7  C6    D T2601     292.742 251.066 225.179  1.00 43.57    -0.014 A 
HETATM    8  C5    D T2601     291.335 251.257 225.451  1.00 47.11     0.038 A 
HETATM    9  C11   D T2601     293.213 250.532 223.833  1.00 43.74     0.032 C 
HETATM   10  C10   D T2601     290.927 251.746 226.703  1.00 47.17     0.013 A 
BRANCH   8  11
HETATM   11  C4    D T2601     290.314 250.957 224.464  1.00 52.56    -0.058 C 
HETATM   12  C3    D T2601     289.496 250.786 223.586  1.00 49.20    -0.039 C 
BRANCH  12  13
HETATM   13  C2    D T2601     288.478 250.558 222.663  1.00 38.17     0.145 A 
HETATM   14  N82   D T2601     287.992 251.436 221.756  1.00 38.45    -0.203 N 
HETATM   15  N81   D T2601     288.398 252.726 221.574  1.00 47.45    -0.162 NA
HETATM   16  C84   D T2601     286.992 250.732 221.068  1.00 43.62     0.165 A 
HETATM   17  C83   D T2601     287.721 253.334 220.604  1.00 47.13     0.121 A 
HETATM   18  C82   D T2601     286.687 252.763 219.820  1.00 45.79     0.026 A 
HETATM   19  C81   D T2601     286.319 251.456 220.049  1.00 45.43     0.041 A 
HETATM   20  N1    D T2601     286.880 249.511 221.528  1.00 46.40    -0.223 NA
HETATM   21  C1    D T2601     287.813 249.401 222.528  1.00 39.18     0.128 A 
ENDBRANCH  12  13
ENDBRANCH   8  11
ENDBRANCH   1   4
BRANCH   3  22
HETATM   22  C13   D T2601     291.025 252.126 231.397  1.00 46.23     0.085 A 
HETATM   23  C14   D T2601     291.864 252.884 232.243  1.00 47.02     0.019 A 
HETATM   24  C15   D T2601     291.436 253.224 233.565  1.00 48.51    -0.001 A 
HETATM   25  C16   D T2601     290.149 252.810 234.073  1.00 46.86     0.015 A 
HETATM   26  C17   D T2601     289.287 252.022 233.196  1.00 48.59     0.071 A 
HETATM   27  C18   D T2601     289.749 251.706 231.893  1.00 47.76     0.023 A 
BRANCH  25  28
HETATM   28  C20   D T2601     289.775 253.228 235.513  1.00 47.69     0.277 C 
BRANCH  28  29
HETATM   29  N3    D T2601     290.677 252.698 236.538  1.00 53.58     0.146 N 
HETATM   30  C21   D T2601     290.018 252.593 237.865  1.00 51.34     0.286 C 
HETATM   31  C22   D T2601     291.058 252.231 238.944  1.00 47.99     0.286 C 
HETATM   32  N4    D T2601     291.649 250.916 238.643  1.00 50.46     0.143 N 
HETATM   33  C23   D T2601     292.239 250.893 237.272  1.00 49.01     0.286 C 
HETATM   34  C25   D T2601     292.599 250.527 239.671  1.00 50.12     0.285 C 
HETATM   35  C24   D T2601     291.224 251.375 236.190  1.00 52.37     0.286 C 
ENDBRANCH  28  29
ENDBRANCH  25  28
BRANCH  26  36
HETATM   36  C19   D T2601     287.892 251.505 233.557  1.00 53.84     0.419 C 
HETATM   37  F1    D T2601     287.043 252.500 233.616  1.00 57.02    -0.166 F 
HETATM   38  F2    D T2601     287.428 250.639 232.669  1.00 55.32    -0.166 F 
HETATM   39  F3    D T2601     287.927 250.881 234.730  1.00 54.82    -0.166 F 
ENDBRANCH  26  36
ENDBRANCH   3  22
TORSDOF 7
ENDMDL
MODEL 4
REMARK VINA RESULT:    -8.555      2.204      2.941
REMARK INTER + INTRA:         -13.295
REMARK INTER:                 -11.982
REMARK INTRA:                  -1.312
REMARK UNBOUND:                -1.239
REMARK  7 active torsions:
REMARK  status: ('A' for Active; 'I' for Inactive)
REMARK    1  A    between atoms: N3_2  and  C20_12 
REMARK    2  A    between atoms: C4_3  and  C5_4 
REMARK    3  A    between atoms: C13_9  and  N2_29 
REMARK    4  A    between atoms: C17_11  and  C19_33 
REMARK    5  A    between atoms: C20_12  and  C16_31 
REMARK    6  A    between atoms: C2_23  and  C3_24 
REMARK    7  A    between atoms: C9_25  and  C12_27 
REMARK       I    between atoms: C12_27  and  N2_29 
ROOT
HETATM    1  C12   D T2601     292.063 252.015 236.099  1.00 46.76     0.279 C 
HETATM    2  O1    D T2601     292.952 251.768 236.914  1.00 51.78    -0.265 OA
HETATM    3  N2    D T2601     292.221 251.912 234.770  1.00 44.45    -0.208 NA
ENDROOT
BRANCH   1   4
HETATM    4  C9    D T2601     290.729 252.438 236.611  1.00 45.99     0.059 A 
HETATM    5  C8    D T2601     290.444 252.678 238.000  1.00 46.02     0.004 A 
HETATM    6  C7    D T2601     289.141 253.090 238.398  1.00 47.49    -0.004 A 
HETATM    7  C6    D T2601     288.111 253.254 237.414  1.00 43.57    -0.014 A 
HETATM    8  C5    D T2601     288.414 253.007 236.022  1.00 47.11     0.038 A 
HETATM    9  C11   D T2601     286.718 253.692 237.846  1.00 43.74     0.032 C 
HETATM   10  C10   D T2601     289.709 252.608 235.651  1.00 47.17     0.013 A 
BRANCH   8  11
HETATM   11  C4    D T2601     287.415 253.157 234.980  1.00 52.56    -0.058 C 
HETATM   12  C3    D T2601     286.655 253.270 234.042  1.00 49.20    -0.039 C 
BRANCH  12  13
HETATM   13  C2    D T2601     285.723 253.483 233.029  1.00 38.17     0.145 A 
HETATM   14  N82   D T2601     285.250 252.565 232.156  1.00 38.45    -0.203 N 
HETATM   15  N81   D T2601     285.600 251.248 232.089  1.00 47.45    -0.162 NA
HETATM   16  C84   D T2601     284.340 253.267 231.349  1.00 43.62     0.165 A 
HETATM   17  C83   D T2601     284.962 250.606 231.115  1.00 47.13     0.121 A 
HETATM   18  C82   D T2601     284.019 251.170 230.219  1.00 45.79     0.026 A 
HETATM   19  C81   D T2601     283.703 252.505 230.334  1.00 45.43     0.041 A 
HETATM   20  N1    D T2601     284.270 254.523 231.709  1.00 46.40    -0.223 NA
HETATM   21  C1    D T2601     285.137 254.659 232.764  1.00 39.18     0.128 A 
ENDBRANCH  12  13
ENDBRANCH   8  11
ENDBRANCH   1   4
BRANCH   3  22
HETATM   22  C13   D T2601     293.407 251.523 234.101  1.00 46.23     0.085 A 
HETATM   23  C14   D T2601     294.361 252.513 233.780  1.00 47.02     0.019 A 
HETATM   24  C15   D T2601     295.573 252.157 233.110  1.00 48.51    -0.001 A 
HETATM   25  C16   D T2601     295.860 250.789 232.743  1.00 46.86     0.015 A 
HETATM   26  C17   D T2601     294.868 249.769 233.072  1.00 48.59     0.071 A 
HETATM   27  C18   D T2601     293.679 250.165 233.737  1.00 47.76     0.023 A 
BRANCH  25  28
HETATM   28  C20   D T2601     297.196 250.502 232.023  1.00 47.69     0.277 C 
BRANCH  28  29
HETATM   29  N3    D T2601     297.148 250.713 230.574  1.00 53.58     0.146 N 
HETATM   30  C21   D T2601     297.863 251.949 230.164  1.00 51.34     0.286 C 
HETATM   31  C22   D T2601     297.609 252.234 228.670  1.00 47.99     0.286 C 
HETATM   32  N4    D T2601     298.141 251.129 227.856  1.00 50.46     0.143 N 
HETATM   33  C23   D T2601     297.560 249.820 228.279  1.00 49.01     0.286 C 
HETATM   34  C25   D T2601     297.958 251.394 226.439  1.00 50.12     0.285 C 
HETATM   35  C24   D T2601     297.708 249.582 229.813  1.00 52.37     0.286 C 
ENDBRANCH  28  29
ENDBRANCH  25  28
BRANCH  26  36
HETATM   36  C19   D T2601     295.002 248.274 232.771  1.00 53.84     0.419 C 
HETATM   37  F1    D T2601     295.232 248.090 231.495  1.00 57.02    -0.166 F 
HETATM   38  F2    D T2601     295.997 247.711 233.439  1.00 55.32    -0.166 F 
HETATM   39  F3    D T2601     293.888 247.637 233.118  1.00 54.82    -0.166 F 
ENDBRANCH  26  36
ENDBRANCH   3  22
TORSDOF 7
ENDMDL
MODEL 5
REMARK VINA RESULT:    -8.306      1.814      2.349
REMARK INTER + INTRA:         -12.944
REMARK INTER:                 -11.806
REMARK INTRA:                  -1.138
REMARK UNBOUND:                -1.239
REMARK  7 active torsions:
REMARK  status: ('A' for Active; 'I' for Inactive)
REMARK    1  A    between atoms: N3_2  and  C20_12 
REMARK    2  A    between atoms: C4_3  and  C5_4 
REMARK    3  A    between atoms: C13_9  and  N2_29 
REMARK    4  A    between atoms: C17_11  and  C19_33 
REMARK    5  A    between atoms: C20_12  and  C16_31 
REMARK    6  A    between atoms: C2_23  and  C3_24 
REMARK    7  A    between atoms: C9_25  and  C12_27 
REMARK       I    between atoms: C12_27  and  N2_29 
ROOT
HETATM    1  C12   D T2601     292.125 250.753 235.292  1.00 46.76     0.279 C 
HETATM    2  O1    D T2601     293.106 250.530 236.000  1.00 51.78    -0.265 OA
HETATM    3  N2    D T2601     292.007 250.325 234.026  1.00 44.45    -0.208 NA
ENDROOT
BRANCH   1   4
HETATM    4  C9    D T2601     290.993 251.530 235.874  1.00 45.99     0.059 A 
HETATM    5  C8    D T2601     290.922 251.929 237.254  1.00 46.02     0.004 A 
HETATM    6  C7    D T2601     289.805 252.678 237.721  1.00 47.49    -0.004 A 
HETATM    7  C6    D T2601     288.749 253.025 236.816  1.00 43.57    -0.014 A 
HETATM    8  C5    D T2601     288.835 252.614 235.433  1.00 47.11     0.038 A 
HETATM    9  C11   D T2601     287.555 253.825 237.321  1.00 43.74     0.032 C 
HETATM   10  C10   D T2601     289.950 251.881 234.992  1.00 47.17     0.013 A 
BRANCH   8  11
HETATM   11  C4    D T2601     287.798 252.935 234.469  1.00 52.56    -0.058 C 
HETATM   12  C3    D T2601     286.889 253.262 233.737  1.00 49.20    -0.039 C 
BRANCH  12  13
HETATM   13  C2    D T2601     285.848 253.525 232.850  1.00 38.17     0.145 A 
HETATM   14  N82   D T2601     285.371 252.701 231.889  1.00 38.45    -0.203 N 
HETATM   15  N81   D T2601     285.825 251.449 231.593  1.00 47.45    -0.162 NA
HETATM   16  C84   D T2601     284.330 253.419 231.279  1.00 43.62     0.165 A 
HETATM   17  C83   D T2601     285.151 250.895 230.589  1.00 47.13     0.121 A 
HETATM   18  C82   D T2601     284.080 251.486 229.872  1.00 45.79     0.026 A 
HETATM   19  C81   D T2601     283.664 252.752 230.217  1.00 45.43     0.041 A 
HETATM   20  N1    D T2601     284.188 254.596 231.832  1.00 46.40    -0.223 NA
HETATM   21  C1    D T2601     285.139 254.664 232.818  1.00 39.18     0.128 A 
ENDBRANCH  12  13
ENDBRANCH   8  11
ENDBRANCH   1   4
BRANCH   3  22
HETATM   22  C13   D T2601     292.969 249.574 233.309  1.00 46.23     0.085 A 
HETATM   23  C14   D T2601     292.608 248.299 232.821  1.00 47.02     0.019 A 
HETATM   24  C15   D T2601     293.552 247.514 232.087  1.00 48.51    -0.001 A 
HETATM   25  C16   D T2601     294.889 247.992 231.823  1.00 46.86     0.015 A 
HETATM   26  C17   D T2601     295.260 249.309 232.333  1.00 48.59     0.071 A 
HETATM   27  C18   D T2601     294.295 250.054 233.056  1.00 47.76     0.023 A 
BRANCH  25  28
HETATM   28  C20   D T2601     295.836 247.072 231.020  1.00 47.69     0.277 C 
BRANCH  28  29
HETATM   29  N3    D T2601     295.566 247.053 229.580  1.00 53.58     0.146 N 
HETATM   30  C21   D T2601     296.802 247.226 228.775  1.00 51.34     0.286 C 
HETATM   31  C22   D T2601     296.442 247.406 227.287  1.00 47.99     0.286 C 
HETATM   32  N4    D T2601     295.762 246.198 226.791  1.00 50.46     0.143 N 
HETATM   33  C23   D T2601     294.562 245.878 227.619  1.00 49.01     0.286 C 
HETATM   34  C25   D T2601     295.454 246.320 225.376  1.00 50.12     0.285 C 
HETATM   35  C24   D T2601     294.900 245.814 229.140  1.00 52.37     0.286 C 
ENDBRANCH  28  29
ENDBRANCH  25  28
BRANCH  26  36
HETATM   36  C19   D T2601     296.623 249.980 232.144  1.00 53.84     0.419 C 
HETATM   37  F1    D T2601     296.853 250.182 230.871  1.00 57.02    -0.166 F 
HETATM   38  F2    D T2601     296.697 251.154 232.752  1.00 55.32    -0.166 F 
HETATM   39  F3    D T2601     297.583 249.214 232.653  1.00 54.82    -0.166 F 
ENDBRANCH  26  36
ENDBRANCH   3  22
TORSDOF 7
ENDMDL
MODEL 6
REMARK VINA RESULT:    -7.785      8.031     10.026
REMARK INTER + INTRA:         -12.210
REMARK INTER:                 -11.195
REMARK INTRA:                  -1.014
REMARK UNBOUND:                -1.239
REMARK  7 active torsions:
REMARK  status: ('A' for Active; 'I' for Inactive)
REMARK    1  A    between atoms: N3_2  and  C20_12 
REMARK    2  A    between atoms: C4_3  and  C5_4 
REMARK    3  A    between atoms: C13_9  and  N2_29 
REMARK    4  A    between atoms: C17_11  and  C19_33 
REMARK    5  A    between atoms: C20_12  and  C16_31 
REMARK    6  A    between atoms: C2_23  and  C3_24 
REMARK    7  A    between atoms: C9_25  and  C12_27 
REMARK       I    between atoms: C12_27  and  N2_29 
ROOT
HETATM    1  C12   D T2601     291.458 252.082 227.978  1.00 46.76     0.279 C 
HETATM    2  O1    D T2601     291.140 253.138 227.433  1.00 51.78    -0.265 OA
HETATM    3  N2    D T2601     291.435 250.889 227.362  1.00 44.45    -0.208 NA
ENDROOT
BRANCH   1   4
HETATM    4  C9    D T2601     291.911 252.124 229.397  1.00 45.99     0.059 A 
HETATM    5  C8    D T2601     293.286 252.009 229.803  1.00 46.02     0.004 A 
HETATM    6  C7    D T2601     293.628 252.071 231.184  1.00 47.49    -0.004 A 
HETATM    7  C6    D T2601     292.599 252.236 232.168  1.00 43.57    -0.014 A 
HETATM    8  C5    D T2601     291.221 252.347 231.743  1.00 47.11     0.038 A 
HETATM    9  C11   D T2601     292.970 252.298 233.644  1.00 43.74     0.032 C 
HETATM   10  C10   D T2601     290.907 252.291 230.375  1.00 47.17     0.013 A 
BRANCH   8  11
HETATM   11  C4    D T2601     290.136 252.517 232.692  1.00 52.56    -0.058 C 
HETATM   12  C3    D T2601     289.280 252.740 233.520  1.00 49.20    -0.039 C 
BRANCH  12  13
HETATM   13  C2    D T2601     288.284 252.878 234.485  1.00 38.17     0.145 A 
HETATM   14  N82   D T2601     288.460 253.049 235.815  1.00 38.45    -0.203 N 
HETATM   15  N81   D T2601     289.651 253.112 236.477  1.00 47.45    -0.162 NA
HETATM   16  C84   D T2601     287.162 253.139 236.344  1.00 43.62     0.165 A 
HETATM   17  C83   D T2601     289.490 253.282 237.786  1.00 47.13     0.121 A 
HETATM   18  C82   D T2601     288.253 253.390 238.471  1.00 45.79     0.026 A 
HETATM   19  C81   D T2601     287.083 253.320 237.750  1.00 45.43     0.041 A 
HETATM   20  N1    D T2601     286.264 253.028 235.399  1.00 46.40    -0.223 NA
HETATM   21  C1    D T2601     286.967 252.865 234.232  1.00 39.18     0.128 A 
ENDBRANCH  12  13
ENDBRANCH   8  11
ENDBRANCH   1   4
BRANCH   3  22
HETATM   22  C13   D T2601     291.042 250.652 226.023  1.00 46.23     0.085 A 
HETATM   23  C14   D T2601     292.040 250.575 225.027  1.00 47.02     0.019 A 
HETATM   24  C15   D T2601     291.682 250.332 223.664  1.00 48.51    -0.001 A 
HETATM   25  C16   D T2601     290.304 250.158 223.264  1.00 46.86     0.015 A 
HETATM   26  C17   D T2601     289.275 250.243 224.297  1.00 48.59     0.071 A 
HETATM   27  C18   D T2601     289.673 250.487 225.636  1.00 47.76     0.023 A 
BRANCH  25  28
HETATM   28  C20   D T2601     290.017 249.897 221.769  1.00 47.69     0.277 C 
BRANCH  28  29
HETATM   29  N3    D T2601     290.111 251.093 220.928  1.00 53.58     0.146 N 
HETATM   30  C21   D T2601     289.906 250.784 219.490  1.00 51.34     0.286 C 
HETATM   31  C22   D T2601     290.218 252.028 218.634  1.00 47.99     0.286 C 
HETATM   32  N4    D T2601     289.291 253.117 218.985  1.00 50.46     0.143 N 
HETATM   33  C23   D T2601     289.345 253.420 220.445  1.00 49.01     0.286 C 
HETATM   34  C25   D T2601     289.531 254.288 218.158  1.00 50.12     0.285 C 
HETATM   35  C24   D T2601     289.150 252.141 221.316  1.00 52.37     0.286 C 
ENDBRANCH  28  29
ENDBRANCH  25  28
BRANCH  26  36
HETATM   36  C19   D T2601     287.771 250.077 224.063  1.00 53.84     0.419 C 
HETATM   37  F1    D T2601     287.212 251.246 223.877  1.00 57.02    -0.166 F 
HETATM   38  F2    D T2601     287.503 249.335 223.000  1.00 55.32    -0.166 F 
HETATM   39  F3    D T2601     287.211 249.478 225.110  1.00 54.82    -0.166 F 
ENDBRANCH  26  36
ENDBRANCH   3  22
TORSDOF 7
ENDMDL
MODEL 7
REMARK VINA RESULT:    -7.755      8.390     10.102
REMARK INTER + INTRA:         -12.167
REMARK INTER:                 -11.015
REMARK INTRA:                  -1.152
REMARK UNBOUND:                -1.239
REMARK  7 active torsions:
REMARK  status: ('A' for Active; 'I' for Inactive)
REMARK    1  A    between atoms: N3_2  and  C20_12 
REMARK    2  A    between atoms: C4_3  and  C5_4 
REMARK    3  A    between atoms: C13_9  and  N2_29 
REMARK    4  A    between atoms: C17_11  and  C19_33 
REMARK    5  A    between atoms: C20_12  and  C16_31 
REMARK    6  A    between atoms: C2_23  and  C3_24 
REMARK    7  A    between atoms: C9_25  and  C12_27 
REMARK       I    between atoms: C12_27  and  N2_29 
ROOT
HETATM    1  C12   D T2601     291.148 251.758 227.515  1.00 46.76     0.279 C 
HETATM    2  O1    D T2601     291.115 252.959 227.252  1.00 51.78    -0.265 OA
HETATM    3  N2    D T2601     290.913 250.790 226.615  1.00 44.45    -0.208 NA
ENDROOT
BRANCH   1   4
HETATM    4  C9    D T2601     291.484 251.347 228.908  1.00 45.99     0.059 A 
HETATM    5  C8    D T2601     292.660 250.597 229.261  1.00 46.02     0.004 A 
HETATM    6  C7    D T2601     292.905 250.256 230.621  1.00 47.49    -0.004 A 
HETATM    7  C6    D T2601     291.974 250.652 231.636  1.00 43.57    -0.014 A 
HETATM    8  C5    D T2601     290.796 251.403 231.265  1.00 47.11     0.038 A 
HETATM    9  C11   D T2601     292.240 250.283 233.089  1.00 43.74     0.032 C 
HETATM   10  C10   D T2601     290.576 251.735 229.917  1.00 47.17     0.013 A 
BRANCH   8  11
HETATM   11  C4    D T2601     289.817 251.833 232.247  1.00 52.56    -0.058 C 
HETATM   12  C3    D T2601     289.054 252.277 233.077  1.00 49.20    -0.039 C 
BRANCH  12  13
HETATM   13  C2    D T2601     288.166 252.675 234.074  1.00 38.17     0.145 A 
HETATM   14  N82   D T2601     288.441 252.844 235.387  1.00 38.45    -0.203 N 
HETATM   15  N81   D T2601     289.645 252.647 235.998  1.00 47.45    -0.162 NA
HETATM   16  C84   D T2601     287.228 253.252 235.963  1.00 43.62     0.165 A 
HETATM   17  C83   D T2601     289.592 252.892 237.304  1.00 47.13     0.121 A 
HETATM   18  C82   D T2601     288.449 253.309 238.032  1.00 45.79     0.026 A 
HETATM   19  C81   D T2601     287.261 253.493 237.362  1.00 45.43     0.041 A 
HETATM   20  N1    D T2601     286.283 253.324 235.060  1.00 46.40    -0.223 NA
HETATM   21  C1    D T2601     286.871 252.963 233.874  1.00 39.18     0.128 A 
ENDBRANCH  12  13
ENDBRANCH   8  11
ENDBRANCH   1   4
BRANCH   3  22
HETATM   22  C13   D T2601     290.586 250.984 225.252  1.00 46.23     0.085 A 
HETATM   23  C14   D T2601     291.575 250.735 224.275  1.00 47.02     0.019 A 
HETATM   24  C15   D T2601     291.279 250.915 222.887  1.00 48.51    -0.001 A 
HETATM   25  C16   D T2601     289.976 251.352 222.442  1.00 46.86     0.015 A 
HETATM   26  C17   D T2601     288.958 251.614 223.456  1.00 48.59     0.071 A 
HETATM   27  C18   D T2601     289.292 251.423 224.821  1.00 47.76     0.023 A 
BRANCH  25  28
HETATM   28  C20   D T2601     289.752 251.515 220.923  1.00 47.69     0.277 C 
BRANCH  28  29
HETATM   29  N3    D T2601     290.381 250.468 220.113  1.00 53.58     0.146 N 
HETATM   30  C21   D T2601     289.558 249.232 220.059  1.00 51.34     0.286 C 
HETATM   31  C22   D T2601     290.351 248.100 219.376  1.00 47.99     0.286 C 
HETATM   32  N4    D T2601     290.663 248.480 217.988  1.00 50.46     0.143 N 
HETATM   33  C23   D T2601     291.395 249.780 217.938  1.00 49.01     0.286 C 
HETATM   34  C25   D T2601     291.369 247.410 217.304  1.00 50.12     0.285 C 
HETATM   35  C24   D T2601     290.655 250.900 218.732  1.00 52.37     0.286 C 
ENDBRANCH  28  29
ENDBRANCH  25  28
BRANCH  26  36
HETATM   36  C19   D T2601     287.525 252.073 223.174  1.00 53.84     0.419 C 
HETATM   37  F1    D T2601     286.935 251.234 222.359  1.00 57.02    -0.166 F 
HETATM   38  F2    D T2601     286.790 252.141 224.273  1.00 55.32    -0.166 F 
HETATM   39  F3    D T2601     287.534 253.286 222.632  1.00 54.82    -0.166 F 
ENDBRANCH  26  36
ENDBRANCH   3  22
TORSDOF 7
ENDMDL
MODEL 8
REMARK VINA RESULT:    -7.682      3.824     11.080
REMARK INTER + INTRA:         -12.064
REMARK INTER:                 -10.891
REMARK INTRA:                  -1.173
REMARK UNBOUND:                -1.239
REMARK  7 active torsions:
REMARK  status: ('A' for Active; 'I' for Inactive)
REMARK    1  A    between atoms: N3_2  and  C20_12 
REMARK    2  A    between atoms: C4_3  and  C5_4 
REMARK    3  A    between atoms: C13_9  and  N2_29 
REMARK    4  A    between atoms: C17_11  and  C19_33 
REMARK    5  A    between atoms: C20_12  and  C16_31 
REMARK    6  A    between atoms: C2_23  and  C3_24 
REMARK    7  A    between atoms: C9_25  and  C12_27 
REMARK       I    between atoms: C12_27  and  N2_29 
ROOT
HETATM    1  C12   D T2601     293.083 248.258 232.532  1.00 46.76     0.279 C 
HETATM    2  O1    D T2601     292.096 247.545 232.706  1.00 51.78    -0.265 OA
HETATM    3  N2    D T2601     293.056 249.598 232.605  1.00 44.45    -0.208 NA
ENDROOT
BRANCH   1   4
HETATM    4  C9    D T2601     294.389 247.602 232.241  1.00 45.99     0.059 A 
HETATM    5  C8    D T2601     295.435 247.431 233.214  1.00 46.02     0.004 A 
HETATM    6  C7    D T2601     296.648 246.783 232.848  1.00 47.49    -0.004 A 
HETATM    7  C6    D T2601     296.830 246.311 231.507  1.00 43.57    -0.014 A 
HETATM    8  C5    D T2601     295.770 246.493 230.540  1.00 47.11     0.038 A 
HETATM    9  C11   D T2601     298.131 245.621 231.121  1.00 43.74     0.032 C 
HETATM   10  C10   D T2601     294.578 247.130 230.925  1.00 47.17     0.013 A 
BRANCH   8  11
HETATM   11  C4    D T2601     295.895 246.037 229.168  1.00 52.56    -0.058 C 
HETATM   12  C3    D T2601     295.947 245.737 227.995  1.00 49.20    -0.039 C 
BRANCH  12  13
HETATM   13  C2    D T2601     295.995 245.279 226.681  1.00 38.17     0.145 A 
HETATM   14  N82   D T2601     294.950 245.125 225.835  1.00 38.45    -0.203 N 
HETATM   15  N81   D T2601     293.638 245.382 226.108  1.00 47.45    -0.162 NA
HETATM   16  C84   D T2601     295.515 244.647 224.643  1.00 43.62     0.165 A 
HETATM   17  C83   D T2601     292.849 245.125 225.069  1.00 47.13     0.121 A 
HETATM   18  C82   D T2601     293.263 244.639 223.803  1.00 45.79     0.026 A 
HETATM   19  C81   D T2601     294.601 244.400 223.585  1.00 45.43     0.041 A 
HETATM   20  N1    D T2601     296.812 244.518 224.760  1.00 46.40    -0.223 NA
HETATM   21  C1    D T2601     297.114 244.915 226.037  1.00 39.18     0.128 A 
ENDBRANCH  12  13
ENDBRANCH   8  11
ENDBRANCH   1   4
BRANCH   3  22
HETATM   22  C13   D T2601     291.916 250.394 232.876  1.00 46.23     0.085 A 
HETATM   23  C14   D T2601     291.091 250.784 231.799  1.00 47.02     0.019 A 
HETATM   24  C15   D T2601     289.928 251.583 232.034  1.00 48.51    -0.001 A 
HETATM   25  C16   D T2601     289.563 252.012 233.365  1.00 46.86     0.015 A 
HETATM   26  C17   D T2601     290.422 251.610 234.475  1.00 48.59     0.071 A 
HETATM   27  C18   D T2601     291.565 250.818 234.198  1.00 47.76     0.023 A 
BRANCH  25  28
HETATM   28  C20   D T2601     288.288 252.871 233.518  1.00 47.69     0.277 C 
BRANCH  28  29
HETATM   29  N3    D T2601     287.149 252.390 232.732  1.00 53.58     0.146 N 
HETATM   30  C21   D T2601     286.551 251.158 233.307  1.00 51.34     0.286 C 
HETATM   31  C22   D T2601     285.500 250.580 232.339  1.00 47.99     0.286 C 
HETATM   32  N4    D T2601     284.409 251.551 232.154  1.00 50.46     0.143 N 
HETATM   33  C23   D T2601     284.934 252.867 231.683  1.00 49.01     0.286 C 
HETATM   34  C25   D T2601     283.378 251.013 231.283  1.00 50.12     0.285 C 
HETATM   35  C24   D T2601     286.083 253.398 232.594  1.00 52.37     0.286 C 
ENDBRANCH  28  29
ENDBRANCH  25  28
BRANCH  26  36
HETATM   36  C19   D T2601     290.189 251.961 235.947  1.00 53.84     0.419 C 
HETATM   37  F1    D T2601     290.475 253.222 236.160  1.00 57.02    -0.166 F 
HETATM   38  F2    D T2601     288.933 251.770 236.320  1.00 55.32    -0.166 F 
HETATM   39  F3    D T2601     290.950 251.196 236.724  1.00 54.82    -0.166 F 
ENDBRANCH  26  36
ENDBRANCH   3  22
TORSDOF 7
ENDMDL
MODEL 9
REMARK VINA RESULT:    -7.618      7.008     10.141
REMARK INTER + INTRA:         -11.975
REMARK INTER:                 -10.881
REMARK INTRA:                  -1.094
REMARK UNBOUND:                -1.239
REMARK  7 active torsions:
REMARK  status: ('A' for Active; 'I' for Inactive)
REMARK    1  A    between atoms: N3_2  and  C20_12 
REMARK    2  A    between atoms: C4_3  and  C5_4 
REMARK    3  A    between atoms: C13_9  and  N2_29 
REMARK    4  A    between atoms: C17_11  and  C19_33 
REMARK    5  A    between atoms: C20_12  and  C16_31 
REMARK    6  A    between atoms: C2_23  and  C3_24 
REMARK    7  A    between atoms: C9_25  and  C12_27 
REMARK       I    between atoms: C12_27  and  N2_29 
ROOT
HETATM    1  C12   D T2601     291.813 251.196 229.082  1.00 46.76     0.279 C 
HETATM    2  O1    D T2601     290.617 251.461 229.199  1.00 51.78    -0.265 OA
HETATM    3  N2    D T2601     292.330 250.534 228.035  1.00 44.45    -0.208 NA
ENDROOT
BRANCH   1   4
HETATM    4  C9    D T2601     292.747 251.647 230.152  1.00 45.99     0.059 A 
HETATM    5  C8    D T2601     294.122 252.001 229.918  1.00 46.02     0.004 A 
HETATM    6  C7    D T2601     294.939 252.431 231.001  1.00 47.49    -0.004 A 
HETATM    7  C6    D T2601     294.394 252.501 232.325  1.00 43.57    -0.014 A 
HETATM    8  C5    D T2601     293.011 252.139 232.543  1.00 47.11     0.038 A 
HETATM    9  C11   D T2601     295.274 252.959 233.480  1.00 43.74     0.032 C 
HETATM   10  C10   D T2601     292.220 251.724 231.459  1.00 47.17     0.013 A 
BRANCH   8  11
HETATM   11  C4    D T2601     292.402 252.190 233.860  1.00 52.56    -0.058 C 
HETATM   12  C3    D T2601     291.846 252.145 234.936  1.00 49.20    -0.039 C 
BRANCH  12  13
HETATM   13  C2    D T2601     291.198 252.214 236.166  1.00 38.17     0.145 A 
HETATM   14  N82   D T2601     291.609 251.667 237.333  1.00 38.45    -0.203 N 
HETATM   15  N81   D T2601     292.740 250.930 237.532  1.00 47.45    -0.162 NA
HETATM   16  C84   D T2601     290.624 252.021 238.268  1.00 43.62     0.165 A 
HETATM   17  C83   D T2601     292.862 250.527 238.793  1.00 47.13     0.121 A 
HETATM   18  C82   D T2601     291.958 250.799 239.850  1.00 45.79     0.026 A 
HETATM   19  C81   D T2601     290.834 251.550 239.591  1.00 45.43     0.041 A 
HETATM   20  N1    D T2601     289.680 252.732 237.705  1.00 46.40    -0.223 NA
HETATM   21  C1    D T2601     290.040 252.854 236.386  1.00 39.18     0.128 A 
ENDBRANCH  12  13
ENDBRANCH   8  11
ENDBRANCH   1   4
BRANCH   3  22
HETATM   22  C13   D T2601     291.606 250.035 226.926  1.00 46.23     0.085 A 
HETATM   23  C14   D T2601     291.397 250.882 225.815  1.00 47.02     0.019 A 
HETATM   24  C15   D T2601     290.675 250.410 224.674  1.00 48.51    -0.001 A 
HETATM   25  C16   D T2601     290.141 249.069 224.619  1.00 46.86     0.015 A 
HETATM   26  C17   D T2601     290.355 248.198 225.772  1.00 48.59     0.071 A 
HETATM   27  C18   D T2601     291.076 248.705 226.883  1.00 47.76     0.023 A 
BRANCH  25  28
HETATM   28  C20   D T2601     289.377 248.651 223.343  1.00 47.69     0.277 C 
BRANCH  28  29
HETATM   29  N3    D T2601     288.977 249.776 222.495  1.00 53.58     0.146 N 
HETATM   30  C21   D T2601     288.971 249.417 221.053  1.00 51.34     0.286 C 
HETATM   31  C22   D T2601     288.748 250.679 220.196  1.00 47.99     0.286 C 
HETATM   32  N4    D T2601     287.433 251.264 220.507  1.00 50.46     0.143 N 
HETATM   33  C23   D T2601     287.304 251.553 221.966  1.00 49.01     0.286 C 
HETATM   34  C25   D T2601     287.175 252.429 219.677  1.00 50.12     0.285 C 
HETATM   35  C24   D T2601     287.647 250.309 222.842  1.00 52.37     0.286 C 
ENDBRANCH  28  29
ENDBRANCH  25  28
BRANCH  26  36
HETATM   36  C19   D T2601     289.872 246.750 225.889  1.00 53.84     0.419 C 
HETATM   37  F1    D T2601     290.232 246.068 224.831  1.00 57.02    -0.166 F 
HETATM   38  F2    D T2601     290.374 246.134 226.948  1.00 55.32    -0.166 F 
HETATM   39  F3    D T2601     288.549 246.719 226.009  1.00 54.82    -0.166 F 
ENDBRANCH  26  36
ENDBRANCH   3  22
TORSDOF 7
ENDMDL
