MODEL 1
REMARK VINA RESULT:    -5.007      0.000      0.000
REMARK INTER + INTRA:          -7.397
REMARK INTER:                  -6.470
REMARK INTRA:                  -0.927
REMARK UNBOUND:                -0.927
REMARK  5 active torsions:
REMARK  status: ('A' for Active; 'I' for Inactive)
REMARK    1  A    between atoms: O2_2  and  C3_3 
REMARK    2  A    between atoms: C5_5  and  N6_6 
REMARK    3  A    between atoms: N6_6  and  S7_7 
REMARK    4  A    between atoms: C13_13  and  N14_14 
REMARK    5  A    between atoms: N14_14  and  C15_15 
ROOT
HETATM    1  C15   D T1202     110.336 142.348 140.118  1.00133.69     0.084 A 
HETATM    2  C16   D T1202     111.392 143.164 140.638  1.00133.57     0.035 A 
HETATM    3  C17   D T1202     112.368 143.737 139.785  1.00134.96     0.003 A 
HETATM    4  C18   D T1202     113.380 144.530 140.319  1.00135.95     0.000 A 
HETATM    5  C19   D T1202     113.434 144.757 141.697  1.00140.33     0.002 A 
HETATM    6  C20   D T1202     112.476 144.199 142.530  1.00142.57     0.019 A 
HETATM    7  C21   D T1202     111.443 143.388 141.982  1.00137.04     0.083 A 
HETATM    8  N22   D T1202     110.530 142.859 142.837  1.00136.35    -0.245 NA
HETATM    9  C23   D T1202     109.515 142.077 142.377  1.00136.64     0.083 A 
HETATM   10  C24   D T1202     108.595 141.558 143.333  1.00140.64     0.019 A 
HETATM   11  C25   D T1202     107.540 140.753 142.925  1.00138.49     0.002 A 
HETATM   12  C26   D T1202     107.386 140.455 141.567  1.00134.13     0.000 A 
HETATM   13  C27   D T1202     108.289 140.963 140.638  1.00132.54     0.003 A 
HETATM   14  C28   D T1202     109.376 141.791 141.042  1.00134.07     0.035 A 
ENDROOT
BRANCH   1  15
HETATM   15  N14   D T1202     110.357 142.154 138.670  1.00133.37    -0.243 NA
BRANCH  15  16
HETATM   16  C13   D T1202     109.505 142.789 137.689  1.00139.52     0.104 A 
HETATM   17  C3    D T1202     109.846 142.703 136.353  1.00145.68     0.113 A 
HETATM   18  C4    D T1202     109.050 143.304 135.397  1.00146.28     0.046 A 
HETATM   19  C5    D T1202     107.910 143.997 135.774  1.00143.67     0.096 A 
HETATM   20  C11   D T1202     107.569 144.080 137.115  1.00141.96     0.022 A 
HETATM   21  C12   D T1202     108.367 143.484 138.074  1.00143.27     0.023 A 
BRANCH  17  22
HETATM   22  O2    D T1202     110.998 142.003 135.984  1.00148.39    -0.327 OA
HETATM   23  C1    D T1202     112.118 142.805 135.751  1.00144.79     0.181 C 
ENDBRANCH  17  22
BRANCH  19  24
HETATM   24  N6    D T1202     107.099 144.616 134.742  1.00145.73    -0.162 NA
BRANCH  24  25
HETATM   25  S7    D T1202     106.371 143.741 133.463  1.00154.23     0.266 S 
HETATM   26  C8    D T1202     104.909 144.656 132.902  1.00146.68     0.165 C 
HETATM   27  O9    D T1202     105.882 142.244 133.957  1.00143.37    -0.203 OA
HETATM   28  O10   D T1202     107.442 143.604 132.223  1.00144.20    -0.203 OA
ENDBRANCH  24  25
ENDBRANCH  19  24
ENDBRANCH  15  16
ENDBRANCH   1  15
TORSDOF 5
ENDMDL
MODEL 2
REMARK VINA RESULT:    -4.984      3.518      8.096
REMARK INTER + INTRA:          -7.368
REMARK INTER:                  -6.368
REMARK INTRA:                  -1.000
REMARK UNBOUND:                -0.927
REMARK  5 active torsions:
REMARK  status: ('A' for Active; 'I' for Inactive)
REMARK    1  A    between atoms: O2_2  and  C3_3 
REMARK    2  A    between atoms: C5_5  and  N6_6 
REMARK    3  A    between atoms: N6_6  and  S7_7 
REMARK    4  A    between atoms: C13_13  and  N14_14 
REMARK    5  A    between atoms: N14_14  and  C15_15 
ROOT
HETATM    1  C15   D T1202     109.156 143.403 135.696  1.00133.69     0.084 A 
HETATM    2  C16   D T1202     107.786 143.428 135.280  1.00133.57     0.035 A 
HETATM    3  C17   D T1202     106.765 143.906 136.138  1.00134.96     0.003 A 
HETATM    4  C18   D T1202     105.442 143.924 135.703  1.00135.95     0.000 A 
HETATM    5  C19   D T1202     105.124 143.466 134.421  1.00140.33     0.002 A 
HETATM    6  C20   D T1202     106.125 143.003 133.581  1.00142.57     0.019 A 
HETATM    7  C21   D T1202     107.476 142.985 134.028  1.00137.04     0.083 A 
HETATM    8  N22   D T1202     108.421 142.518 133.172  1.00136.35    -0.245 NA
HETATM    9  C23   D T1202     109.733 142.477 133.537  1.00136.64     0.083 A 
HETATM   10  C24   D T1202     110.668 141.975 132.587  1.00140.64     0.019 A 
HETATM   11  C25   D T1202     112.018 141.908 132.901  1.00138.49     0.002 A 
HETATM   12  C26   D T1202     112.455 142.336 134.158  1.00134.13     0.000 A 
HETATM   13  C27   D T1202     111.537 142.824 135.084  1.00132.54     0.003 A 
HETATM   14  C28   D T1202     110.148 142.900 134.775  1.00134.07     0.035 A 
ENDROOT
BRANCH   1  15
HETATM   15  N14   D T1202     109.402 143.890 137.051  1.00133.37    -0.243 NA
BRANCH  15  16
HETATM   16  C13   D T1202     109.630 143.098 138.240  1.00139.52     0.104 A 
HETATM   17  C3    D T1202     110.722 143.387 139.034  1.00145.68     0.113 A 
HETATM   18  C4    D T1202     110.963 142.642 140.174  1.00146.28     0.046 A 
HETATM   19  C5    D T1202     110.113 141.604 140.521  1.00143.67     0.096 A 
HETATM   20  C11   D T1202     109.017 141.318 139.722  1.00141.96     0.022 A 
HETATM   21  C12   D T1202     108.777 142.058 138.579  1.00143.27     0.023 A 
BRANCH  17  22
HETATM   22  O2    D T1202     111.574 144.436 138.675  1.00148.39    -0.327 OA
HETATM   23  C1    D T1202     112.874 144.044 138.349  1.00144.79     0.181 C 
ENDBRANCH  17  22
BRANCH  19  24
HETATM   24  N6    D T1202     110.399 140.843 141.723  1.00145.73    -0.162 NA
BRANCH  24  25
HETATM   25  S7    D T1202     109.946 141.355 143.292  1.00154.23     0.266 S 
HETATM   26  C8    D T1202     110.834 140.342 144.506  1.00146.68     0.165 C 
HETATM   27  O9    D T1202     108.326 141.160 143.547  1.00143.37    -0.203 OA
HETATM   28  O10   D T1202     110.360 142.934 143.487  1.00144.20    -0.203 OA
ENDBRANCH  24  25
ENDBRANCH  19  24
ENDBRANCH  15  16
ENDBRANCH   1  15
TORSDOF 5
ENDMDL
MODEL 3
REMARK VINA RESULT:    -4.808     10.875     12.280
REMARK INTER + INTRA:          -7.140
REMARK INTER:                  -6.134
REMARK INTRA:                  -1.006
REMARK UNBOUND:                -0.927
REMARK  5 active torsions:
REMARK  status: ('A' for Active; 'I' for Inactive)
REMARK    1  A    between atoms: O2_2  and  C3_3 
REMARK    2  A    between atoms: C5_5  and  N6_6 
REMARK    3  A    between atoms: N6_6  and  S7_7 
REMARK    4  A    between atoms: C13_13  and  N14_14 
REMARK    5  A    between atoms: N14_14  and  C15_15 
ROOT
HETATM    1  C15   D T1202     113.896 132.475 143.435  1.00133.69     0.084 A 
HETATM    2  C16   D T1202     114.207 131.291 144.177  1.00133.57     0.035 A 
HETATM    3  C17   D T1202     114.677 130.120 143.533  1.00134.96     0.003 A 
HETATM    4  C18   D T1202     114.977 128.985 144.283  1.00135.95     0.000 A 
HETATM    5  C19   D T1202     114.809 129.003 145.670  1.00140.33     0.002 A 
HETATM    6  C20   D T1202     114.353 130.151 146.300  1.00142.57     0.019 A 
HETATM    7  C21   D T1202     114.047 131.309 145.532  1.00137.04     0.083 A 
HETATM    8  N22   D T1202     113.599 132.408 146.192  1.00136.35    -0.245 NA
HETATM    9  C23   D T1202     113.291 133.550 145.516  1.00136.64     0.083 A 
HETATM   10  C24   D T1202     112.827 134.662 146.275  1.00140.64     0.019 A 
HETATM   11  C25   D T1202     112.497 135.853 145.642  1.00138.49     0.002 A 
HETATM   12  C26   D T1202     112.622 135.953 144.253  1.00134.13     0.000 A 
HETATM   13  C27   D T1202     113.073 134.862 143.516  1.00132.54     0.003 A 
HETATM   14  C28   D T1202     113.418 133.634 144.152  1.00134.07     0.035 A 
ENDROOT
BRANCH   1  15
HETATM   15  N14   D T1202     114.091 132.371 141.991  1.00133.37    -0.243 NA
BRANCH  15  16
HETATM   16  C13   D T1202     113.105 132.004 140.998  1.00139.52     0.104 A 
HETATM   17  C3    D T1202     113.523 131.359 139.850  1.00145.68     0.113 A 
HETATM   18  C4    D T1202     112.601 131.000 138.884  1.00146.28     0.046 A 
HETATM   19  C5    D T1202     111.258 131.288 139.063  1.00143.67     0.096 A 
HETATM   20  C11   D T1202     110.841 131.933 140.217  1.00141.96     0.022 A 
HETATM   21  C12   D T1202     111.762 132.298 141.181  1.00143.27     0.023 A 
BRANCH  17  22
HETATM   22  O2    D T1202     114.882 131.073 139.679  1.00148.39    -0.327 OA
HETATM   23  C1    D T1202     115.152 129.775 139.240  1.00144.79     0.181 C 
ENDBRANCH  17  22
BRANCH  19  24
HETATM   24  N6    D T1202     110.319 130.898 138.027  1.00145.73    -0.162 NA
BRANCH  24  25
HETATM   25  S7    D T1202     109.678 131.991 136.876  1.00154.23     0.266 S 
HETATM   26  C8    D T1202     110.980 133.166 136.415  1.00146.68     0.165 C 
HETATM   27  O9    D T1202     108.409 132.846 137.496  1.00143.37    -0.203 OA
HETATM   28  O10   D T1202     109.197 131.155 135.545  1.00144.20    -0.203 OA
ENDBRANCH  24  25
ENDBRANCH  19  24
ENDBRANCH  15  16
ENDBRANCH   1  15
TORSDOF 5
ENDMDL
MODEL 4
REMARK VINA RESULT:    -4.795     10.717     11.970
REMARK INTER + INTRA:          -7.123
REMARK INTER:                  -6.119
REMARK INTRA:                  -1.004
REMARK UNBOUND:                -0.927
REMARK  5 active torsions:
REMARK  status: ('A' for Active; 'I' for Inactive)
REMARK    1  A    between atoms: O2_2  and  C3_3 
REMARK    2  A    between atoms: C5_5  and  N6_6 
REMARK    3  A    between atoms: N6_6  and  S7_7 
REMARK    4  A    between atoms: C13_13  and  N14_14 
REMARK    5  A    between atoms: N14_14  and  C15_15 
ROOT
HETATM    1  C15   D T1202     113.851 132.641 143.342  1.00133.69     0.084 A 
HETATM    2  C16   D T1202     113.391 133.743 144.133  1.00133.57     0.035 A 
HETATM    3  C17   D T1202     113.010 134.970 143.535  1.00134.96     0.003 A 
HETATM    4  C18   D T1202     112.561 136.022 144.330  1.00135.95     0.000 A 
HETATM    5  C19   D T1202     112.491 135.866 145.717  1.00140.33     0.002 A 
HETATM    6  C20   D T1202     112.861 134.664 146.300  1.00142.57     0.019 A 
HETATM    7  C21   D T1202     113.320 133.591 145.486  1.00137.04     0.083 A 
HETATM    8  N22   D T1202     113.674 132.433 146.102  1.00136.35    -0.245 NA
HETATM    9  C23   D T1202     114.118 131.367 145.381  1.00136.64     0.083 A 
HETATM   10  C24   D T1202     114.472 130.187 146.095  1.00140.64     0.019 A 
HETATM   11  C25   D T1202     114.933 129.068 145.415  1.00138.49     0.002 A 
HETATM   12  C26   D T1202     115.048 129.107 144.022  1.00134.13     0.000 A 
HETATM   13  C27   D T1202     114.703 130.264 143.329  1.00132.54     0.003 A 
HETATM   14  C28   D T1202     114.227 131.419 144.013  1.00134.07     0.035 A 
ENDROOT
BRANCH   1  15
HETATM   15  N14   D T1202     113.901 132.889 141.903  1.00133.37    -0.243 NA
BRANCH  15  16
HETATM   16  C13   D T1202     112.985 132.399 140.897  1.00139.52     0.104 A 
HETATM   17  C3    D T1202     113.494 131.936 139.699  1.00145.68     0.113 A 
HETATM   18  C4    D T1202     112.638 131.466 138.721  1.00146.28     0.046 A 
HETATM   19  C5    D T1202     111.269 131.460 138.936  1.00143.67     0.096 A 
HETATM   20  C11   D T1202     110.761 131.923 140.140  1.00141.96     0.022 A 
HETATM   21  C12   D T1202     111.615 132.400 141.118  1.00143.27     0.023 A 
BRANCH  17  22
HETATM   22  O2    D T1202     114.877 131.946 139.492  1.00148.39    -0.327 OA
HETATM   23  C1    D T1202     115.468 130.681 139.449  1.00144.79     0.181 C 
ENDBRANCH  17  22
BRANCH  19  24
HETATM   24  N6    D T1202     110.401 130.960 137.885  1.00145.73    -0.162 NA
BRANCH  24  25
HETATM   25  S7    D T1202     109.688 131.964 136.697  1.00154.23     0.266 S 
HETATM   26  C8    D T1202     110.946 133.123 136.094  1.00146.68     0.165 C 
HETATM   27  O9    D T1202     108.436 132.843 137.320  1.00143.37    -0.203 OA
HETATM   28  O10   D T1202     109.156 131.033 135.450  1.00144.20    -0.203 OA
ENDBRANCH  24  25
ENDBRANCH  19  24
ENDBRANCH  15  16
ENDBRANCH   1  15
TORSDOF 5
ENDMDL
MODEL 5
REMARK VINA RESULT:    -4.603      0.834      3.539
REMARK INTER + INTRA:          -6.876
REMARK INTER:                  -5.987
REMARK INTRA:                  -0.888
REMARK UNBOUND:                -0.927
REMARK  5 active torsions:
REMARK  status: ('A' for Active; 'I' for Inactive)
REMARK    1  A    between atoms: O2_2  and  C3_3 
REMARK    2  A    between atoms: C5_5  and  N6_6 
REMARK    3  A    between atoms: N6_6  and  S7_7 
REMARK    4  A    between atoms: C13_13  and  N14_14 
REMARK    5  A    between atoms: N14_14  and  C15_15 
ROOT
HETATM    1  C15   D T1202     110.542 141.945 140.462  1.00133.69     0.084 A 
HETATM    2  C16   D T1202     109.424 141.527 141.254  1.00133.57     0.035 A 
HETATM    3  C17   D T1202     108.395 140.721 140.708  1.00134.96     0.003 A 
HETATM    4  C18   D T1202     107.323 140.326 141.505  1.00135.95     0.000 A 
HETATM    5  C19   D T1202     107.264 140.729 142.842  1.00140.33     0.002 A 
HETATM    6  C20   D T1202     108.274 141.515 143.376  1.00142.57     0.019 A 
HETATM    7  C21   D T1202     109.367 141.918 142.559  1.00137.04     0.083 A 
HETATM    8  N22   D T1202     110.331 142.690 143.125  1.00136.35    -0.245 NA
HETATM    9  C23   D T1202     111.405 143.107 142.400  1.00136.64     0.083 A 
HETATM   10  C24   D T1202     112.375 143.914 143.060  1.00140.64     0.019 A 
HETATM   11  C25   D T1202     113.492 144.371 142.372  1.00138.49     0.002 A 
HETATM   12  C26   D T1202     113.658 144.033 141.026  1.00134.13     0.000 A 
HETATM   13  C27   D T1202     112.705 143.246 140.385  1.00132.54     0.003 A 
HETATM   14  C28   D T1202     111.556 142.769 141.078  1.00134.07     0.035 A 
ENDROOT
BRANCH   1  15
HETATM   15  N14   D T1202     110.524 141.488 139.074  1.00133.37    -0.243 NA
BRANCH  15  16
HETATM   16  C13   D T1202     110.003 142.195 137.925  1.00139.52     0.104 A 
HETATM   17  C3    D T1202     110.763 142.246 136.772  1.00145.68     0.113 A 
HETATM   18  C4    D T1202     110.289 142.919 135.662  1.00146.28     0.046 A 
HETATM   19  C5    D T1202     109.053 143.546 135.702  1.00143.67     0.096 A 
HETATM   20  C11   D T1202     108.292 143.491 136.859  1.00141.96     0.022 A 
HETATM   21  C12   D T1202     108.767 142.824 137.973  1.00143.27     0.023 A 
BRANCH  17  22
HETATM   22  O2    D T1202     112.008 141.611 136.743  1.00148.39    -0.327 OA
HETATM   23  C1    D T1202     113.104 142.475 136.801  1.00144.79     0.181 C 
ENDBRANCH  17  22
BRANCH  19  24
HETATM   24  N6    D T1202     108.589 144.244 134.517  1.00145.73    -0.162 NA
BRANCH  24  25
HETATM   25  S7    D T1202     107.315 143.673 133.526  1.00154.23     0.266 S 
HETATM   26  C8    D T1202     105.874 144.747 133.768  1.00146.68     0.165 C 
HETATM   27  O9    D T1202     106.881 142.132 133.927  1.00143.37    -0.203 OA
HETATM   28  O10   D T1202     107.786 143.733 131.951  1.00144.20    -0.203 OA
ENDBRANCH  24  25
ENDBRANCH  19  24
ENDBRANCH  15  16
ENDBRANCH   1  15
TORSDOF 5
ENDMDL
MODEL 6
REMARK VINA RESULT:    -4.488      8.276      9.904
REMARK INTER + INTRA:          -6.727
REMARK INTER:                  -5.606
REMARK INTRA:                  -1.121
REMARK UNBOUND:                -0.927
REMARK  5 active torsions:
REMARK  status: ('A' for Active; 'I' for Inactive)
REMARK    1  A    between atoms: O2_2  and  C3_3 
REMARK    2  A    between atoms: C5_5  and  N6_6 
REMARK    3  A    between atoms: N6_6  and  S7_7 
REMARK    4  A    between atoms: C13_13  and  N14_14 
REMARK    5  A    between atoms: N14_14  and  C15_15 
ROOT
HETATM    1  C15   D T1202     113.055 135.930 142.159  1.00133.69     0.084 A 
HETATM    2  C16   D T1202     112.768 135.866 143.561  1.00133.57     0.035 A 
HETATM    3  C17   D T1202     113.095 134.720 144.328  1.00134.96     0.003 A 
HETATM    4  C18   D T1202     112.809 134.689 145.691  1.00135.95     0.000 A 
HETATM    5  C19   D T1202     112.196 135.789 146.298  1.00140.33     0.002 A 
HETATM    6  C20   D T1202     111.880 136.911 145.547  1.00142.57     0.019 A 
HETATM    7  C21   D T1202     112.173 136.939 144.155  1.00137.04     0.083 A 
HETATM    8  N22   D T1202     111.842 138.058 143.460  1.00136.35    -0.245 NA
HETATM    9  C23   D T1202     112.098 138.151 142.126  1.00136.64     0.083 A 
HETATM   10  C24   D T1202     111.722 139.355 141.463  1.00140.64     0.019 A 
HETATM   11  C25   D T1202     111.956 139.508 140.104  1.00138.49     0.002 A 
HETATM   12  C26   D T1202     112.563 138.472 139.388  1.00134.13     0.000 A 
HETATM   13  C27   D T1202     112.926 137.297 140.040  1.00132.54     0.003 A 
HETATM   14  C28   D T1202     112.693 137.126 141.435  1.00134.07     0.035 A 
ENDROOT
BRANCH   1  15
HETATM   15  N14   D T1202     113.689 134.738 141.601  1.00133.37    -0.243 NA
BRANCH  15  16
HETATM   16  C13   D T1202     113.074 133.727 140.769  1.00139.52     0.104 A 
HETATM   17  C3    D T1202     113.499 133.590 139.462  1.00145.68     0.113 A 
HETATM   18  C4    D T1202     112.925 132.633 138.646  1.00146.28     0.046 A 
HETATM   19  C5    D T1202     111.921 131.812 139.134  1.00143.67     0.096 A 
HETATM   20  C11   D T1202     111.498 131.950 140.447  1.00141.96     0.022 A 
HETATM   21  C12   D T1202     112.067 132.911 141.263  1.00143.27     0.023 A 
BRANCH  17  22
HETATM   22  O2    D T1202     114.512 134.424 138.979  1.00148.39    -0.327 OA
HETATM   23  C1    D T1202     114.355 134.819 137.648  1.00144.79     0.181 C 
ENDBRANCH  17  22
BRANCH  19  24
HETATM   24  N6    D T1202     111.341 130.820 138.248  1.00145.73    -0.162 NA
BRANCH  24  25
HETATM   25  S7    D T1202     110.430 131.220 136.855  1.00154.23     0.266 S 
HETATM   26  C8    D T1202     109.238 132.512 137.300  1.00146.68     0.165 C 
HETATM   27  O9    D T1202     109.588 129.917 136.289  1.00143.37    -0.203 OA
HETATM   28  O10   D T1202     111.443 131.785 135.690  1.00144.20    -0.203 OA
ENDBRANCH  24  25
ENDBRANCH  19  24
ENDBRANCH  15  16
ENDBRANCH   1  15
TORSDOF 5
ENDMDL
MODEL 7
REMARK VINA RESULT:    -4.470      3.781      5.020
REMARK INTER + INTRA:          -6.703
REMARK INTER:                  -5.803
REMARK INTRA:                  -0.900
REMARK UNBOUND:                -0.927
REMARK  5 active torsions:
REMARK  status: ('A' for Active; 'I' for Inactive)
REMARK    1  A    between atoms: O2_2  and  C3_3 
REMARK    2  A    between atoms: C5_5  and  N6_6 
REMARK    3  A    between atoms: N6_6  and  S7_7 
REMARK    4  A    between atoms: C13_13  and  N14_14 
REMARK    5  A    between atoms: N14_14  and  C15_15 
ROOT
HETATM    1  C15   D T1202     111.212 139.647 142.709  1.00133.69     0.084 A 
HETATM    2  C16   D T1202     112.270 138.690 142.574  1.00133.57     0.035 A 
HETATM    3  C17   D T1202     112.385 137.878 141.419  1.00134.96     0.003 A 
HETATM    4  C18   D T1202     113.428 136.960 141.314  1.00135.95     0.000 A 
HETATM    5  C19   D T1202     114.357 136.841 142.352  1.00140.33     0.002 A 
HETATM    6  C20   D T1202     114.245 137.640 143.480  1.00142.57     0.019 A 
HETATM    7  C21   D T1202     113.179 138.576 143.585  1.00137.04     0.083 A 
HETATM    8  N22   D T1202     113.108 139.333 144.710  1.00136.35    -0.245 NA
HETATM    9  C23   D T1202     112.114 140.250 144.871  1.00136.64     0.083 A 
HETATM   10  C24   D T1202     112.104 141.008 146.077  1.00140.64     0.019 A 
HETATM   11  C25   D T1202     111.114 141.956 146.300  1.00138.49     0.002 A 
HETATM   12  C26   D T1202     110.127 142.162 145.332  1.00134.13     0.000 A 
HETATM   13  C27   D T1202     110.140 141.417 144.156  1.00132.54     0.003 A 
HETATM   14  C28   D T1202     111.150 140.442 143.913  1.00134.07     0.035 A 
ENDROOT
BRANCH   1  15
HETATM   15  N14   D T1202     110.280 139.703 141.585  1.00133.37    -0.243 NA
BRANCH  15  16
HETATM   16  C13   D T1202     110.095 140.795 140.655  1.00139.52     0.104 A 
HETATM   17  C3    D T1202     108.811 141.223 140.376  1.00145.68     0.113 A 
HETATM   18  C4    D T1202     108.607 142.262 139.488  1.00146.28     0.046 A 
HETATM   19  C5    D T1202     109.687 142.877 138.874  1.00143.67     0.096 A 
HETATM   20  C11   D T1202     110.974 142.447 139.158  1.00141.96     0.022 A 
HETATM   21  C12   D T1202     111.180 141.403 140.041  1.00143.27     0.023 A 
BRANCH  17  22
HETATM   22  O2    D T1202     107.729 140.596 141.001  1.00148.39    -0.327 OA
HETATM   23  C1    D T1202     107.303 141.210 142.181  1.00144.79     0.181 C 
ENDBRANCH  17  22
BRANCH  19  24
HETATM   24  N6    D T1202     109.435 143.964 137.947  1.00145.73    -0.162 NA
BRANCH  24  25
HETATM   25  S7    D T1202     108.649 143.753 136.440  1.00154.23     0.266 S 
HETATM   26  C8    D T1202     106.942 144.344 136.596  1.00146.68     0.165 C 
HETATM   27  O9    D T1202     108.605 142.162 135.999  1.00143.37    -0.203 OA
HETATM   28  O10   D T1202     109.433 144.634 135.294  1.00144.20    -0.203 OA
ENDBRANCH  24  25
ENDBRANCH  19  24
ENDBRANCH  15  16
ENDBRANCH   1  15
TORSDOF 5
ENDMDL
MODEL 8
REMARK VINA RESULT:    -4.464      5.317      7.456
REMARK INTER + INTRA:          -6.696
REMARK INTER:                  -5.814
REMARK INTRA:                  -0.882
REMARK UNBOUND:                -0.927
REMARK  5 active torsions:
REMARK  status: ('A' for Active; 'I' for Inactive)
REMARK    1  A    between atoms: O2_2  and  C3_3 
REMARK    2  A    between atoms: C5_5  and  N6_6 
REMARK    3  A    between atoms: N6_6  and  S7_7 
REMARK    4  A    between atoms: C13_13  and  N14_14 
REMARK    5  A    between atoms: N14_14  and  C15_15 
ROOT
HETATM    1  C15   D T1202     110.220 141.234 141.686  1.00133.69     0.084 A 
HETATM    2  C16   D T1202     110.690 141.924 142.850  1.00133.57     0.035 A 
HETATM    3  C17   D T1202     111.234 141.222 143.953  1.00134.96     0.003 A 
HETATM    4  C18   D T1202     111.688 141.921 145.069  1.00135.95     0.000 A 
HETATM    5  C19   D T1202     111.602 143.316 145.098  1.00140.33     0.002 A 
HETATM    6  C20   D T1202     111.073 144.002 144.016  1.00142.57     0.019 A 
HETATM    7  C21   D T1202     110.609 143.285 142.878  1.00137.04     0.083 A 
HETATM    8  N22   D T1202     110.096 144.000 141.843  1.00136.35    -0.245 NA
HETATM    9  C23   D T1202     109.638 143.375 140.723  1.00136.64     0.083 A 
HETATM   10  C24   D T1202     109.113 144.190 139.680  1.00140.64     0.019 A 
HETATM   11  C25   D T1202     108.630 143.610 138.514  1.00138.49     0.002 A 
HETATM   12  C26   D T1202     108.661 142.220 138.372  1.00134.13     0.000 A 
HETATM   13  C27   D T1202     109.173 141.428 139.396  1.00132.54     0.003 A 
HETATM   14  C28   D T1202     109.674 142.008 140.597  1.00134.07     0.035 A 
ENDROOT
BRANCH   1  15
HETATM   15  N14   D T1202     110.338 139.778 141.739  1.00133.37    -0.243 NA
BRANCH  15  16
HETATM   16  C13   D T1202     111.372 138.961 141.144  1.00139.52     0.104 A 
HETATM   17  C3    D T1202     112.044 138.052 141.939  1.00145.68     0.113 A 
HETATM   18  C4    D T1202     113.039 137.262 141.395  1.00146.28     0.046 A 
HETATM   19  C5    D T1202     113.368 137.380 140.054  1.00143.67     0.096 A 
HETATM   20  C11   D T1202     112.691 138.291 139.259  1.00141.96     0.022 A 
HETATM   21  C12   D T1202     111.699 139.087 139.802  1.00143.27     0.023 A 
BRANCH  17  22
HETATM   22  O2    D T1202     111.704 137.941 143.291  1.00148.39    -0.327 OA
HETATM   23  C1    D T1202     112.241 136.824 143.936  1.00144.79     0.181 C 
ENDBRANCH  17  22
BRANCH  19  24
HETATM   24  N6    D T1202     114.419 136.535 139.519  1.00145.73    -0.162 NA
BRANCH  24  25
HETATM   25  S7    D T1202     114.138 134.970 138.883  1.00154.23     0.266 S 
HETATM   26  C8    D T1202     113.079 135.127 137.420  1.00146.68     0.165 C 
HETATM   27  O9    D T1202     113.365 134.004 139.977  1.00143.37    -0.203 OA
HETATM   28  O10   D T1202     115.574 134.295 138.452  1.00144.20    -0.203 OA
ENDBRANCH  24  25
ENDBRANCH  19  24
ENDBRANCH  15  16
ENDBRANCH   1  15
TORSDOF 5
ENDMDL
MODEL 9
REMARK VINA RESULT:    -4.319      5.300      7.800
REMARK INTER + INTRA:          -6.508
REMARK INTER:                  -5.589
REMARK INTRA:                  -0.919
REMARK UNBOUND:                -0.927
REMARK  5 active torsions:
REMARK  status: ('A' for Active; 'I' for Inactive)
REMARK    1  A    between atoms: O2_2  and  C3_3 
REMARK    2  A    between atoms: C5_5  and  N6_6 
REMARK    3  A    between atoms: N6_6  and  S7_7 
REMARK    4  A    between atoms: C13_13  and  N14_14 
REMARK    5  A    between atoms: N14_14  and  C15_15 
ROOT
HETATM    1  C15   D T1202     110.275 141.125 141.802  1.00133.69     0.084 A 
HETATM    2  C16   D T1202     109.715 141.886 140.726  1.00133.57     0.035 A 
HETATM    3  C17   D T1202     109.199 141.254 139.568  1.00134.96     0.003 A 
HETATM    4  C18   D T1202     108.655 142.020 138.540  1.00135.95     0.000 A 
HETATM    5  C19   D T1202     108.623 143.413 138.652  1.00140.33     0.002 A 
HETATM    6  C20   D T1202     109.124 144.030 139.788  1.00142.57     0.019 A 
HETATM    7  C21   D T1202     109.680 143.245 140.836  1.00137.04     0.083 A 
HETATM    8  N22   D T1202     110.162 143.894 141.928  1.00136.35    -0.245 NA
HETATM    9  C23   D T1202     110.704 143.201 142.968  1.00136.64     0.083 A 
HETATM   10  C24   D T1202     111.190 143.949 144.078  1.00140.64     0.019 A 
HETATM   11  C25   D T1202     111.754 143.299 145.168  1.00138.49     0.002 A 
HETATM   12  C26   D T1202     111.843 141.903 145.167  1.00134.13     0.000 A 
HETATM   13  C27   D T1202     111.369 141.177 144.078  1.00132.54     0.003 A 
HETATM   14  C28   D T1202     110.786 141.831 142.954  1.00134.07     0.035 A 
ENDROOT
BRANCH   1  15
HETATM   15  N14   D T1202     110.277 139.678 141.603  1.00133.37    -0.243 NA
BRANCH  15  16
HETATM   16  C13   D T1202     111.368 138.862 141.117  1.00139.52     0.104 A 
HETATM   17  C3    D T1202     111.997 137.999 141.992  1.00145.68     0.113 A 
HETATM   18  C4    D T1202     113.045 137.211 141.552  1.00146.28     0.046 A 
HETATM   19  C5    D T1202     113.468 137.286 140.235  1.00143.67     0.096 A 
HETATM   20  C11   D T1202     112.833 138.153 139.358  1.00141.96     0.022 A 
HETATM   21  C12   D T1202     111.790 138.946 139.797  1.00143.27     0.023 A 
BRANCH  17  22
HETATM   22  O2    D T1202     111.562 137.930 143.319  1.00148.39    -0.327 OA
HETATM   23  C1    D T1202     112.382 137.175 144.162  1.00144.79     0.181 C 
ENDBRANCH  17  22
BRANCH  19  24
HETATM   24  N6    D T1202     114.572 136.446 139.810  1.00145.73    -0.162 NA
BRANCH  24  25
HETATM   25  S7    D T1202     114.367 134.859 139.199  1.00154.23     0.266 S 
HETATM   26  C8    D T1202     115.895 134.368 138.355  1.00146.68     0.165 C 
HETATM   27  O9    D T1202     113.131 134.787 138.108  1.00143.37    -0.203 OA
HETATM   28  O10   D T1202     114.076 133.832 140.450  1.00144.20    -0.203 OA
ENDBRANCH  24  25
ENDBRANCH  19  24
ENDBRANCH  15  16
ENDBRANCH   1  15
TORSDOF 5
ENDMDL
