MODEL 1
REMARK VINA RESULT:      -5.3      0.000      0.000
REMARK  5 active torsions:
REMARK  status: ('A' for Active; 'I' for Inactive)
REMARK    1  A    between atoms: O2_2  and  C3_3 
REMARK    2  A    between atoms: C5_5  and  N6_6 
REMARK    3  A    between atoms: N6_6  and  S7_7 
REMARK    4  A    between atoms: C13_13  and  N14_14 
REMARK    5  A    between atoms: N14_14  and  C15_15 
ROOT
HETATM    1  C15   D T1202     114.103 131.207 144.470  1.00133.69     0.084 A 
HETATM    2  C16   D T1202     114.436 129.954 145.077  1.00133.57     0.035 A 
HETATM    3  C17   D T1202     114.810 128.833 144.296  1.00134.96     0.003 A 
HETATM    4  C18   D T1202     115.134 127.628 144.915  1.00135.95     0.000 A 
HETATM    5  C19   D T1202     115.086 127.527 146.308  1.00140.33     0.002 A 
HETATM    6  C20   D T1202     114.723 128.626 147.072  1.00142.57     0.019 A 
HETATM    7  C21   D T1202     114.392 129.855 146.437  1.00137.04     0.083 A 
HETATM    8  N22   D T1202     114.040 130.903 147.226  1.00136.35    -0.245 NA
HETATM    9  C23   D T1202     113.714 132.108 146.681  1.00136.64     0.083 A 
HETATM   10  C24   D T1202     113.354 133.160 147.571  1.00140.64     0.019 A 
HETATM   11  C25   D T1202     113.011 134.410 147.075  1.00138.49     0.002 A 
HETATM   12  C26   D T1202     113.020 134.630 145.694  1.00134.13     0.000 A 
HETATM   13  C27   D T1202     113.370 133.597 144.829  1.00132.54     0.003 A 
HETATM   14  C28   D T1202     113.726 132.309 145.323  1.00134.07     0.035 A 
ENDROOT
BRANCH   1  15
HETATM   15  N14   D T1202     114.170 131.226 143.011  1.00133.37    -0.243 NA
BRANCH  15  16
HETATM   16  C13   D T1202     113.068 131.356 142.084  1.00139.52     0.104 A 
HETATM   17  C3    D T1202     112.987 132.488 141.297  1.00145.68     0.113 A 
HETATM   18  C4    D T1202     111.941 132.637 140.406  1.00146.28     0.046 A 
HETATM   19  C5    D T1202     110.970 131.654 140.301  1.00143.67     0.096 A 
HETATM   20  C11   D T1202     111.054 130.518 141.090  1.00141.96     0.022 A 
HETATM   21  C12   D T1202     112.096 130.370 141.987  1.00143.27     0.023 A 
BRANCH  17  22
HETATM   22  O2    D T1202     113.972 133.474 141.411  1.00148.39    -0.327 OA
HETATM   23  C1    D T1202     113.510 134.781 141.239  1.00144.79     0.181 C 
ENDBRANCH  17  22
BRANCH  19  24
HETATM   24  N6    D T1202     109.885 131.846 139.355  1.00145.73    -0.162 NA
BRANCH  24  25
HETATM   25  S7    D T1202     110.117 131.944 137.662  1.00154.23     0.266 S 
HETATM   26  C8    D T1202     110.370 130.267 137.020  1.00146.68     0.165 C 
HETATM   27  O9    D T1202     111.449 132.845 137.287  1.00143.37    -0.203 OA
HETATM   28  O10   D T1202     108.779 132.602 136.969  1.00144.20    -0.203 OA
ENDBRANCH  24  25
ENDBRANCH  19  24
ENDBRANCH  15  16
ENDBRANCH   1  15
TORSDOF 5
ENDMDL
MODEL 2
REMARK VINA RESULT:      -5.3      4.121     10.116
REMARK  5 active torsions:
REMARK  status: ('A' for Active; 'I' for Inactive)
REMARK    1  A    between atoms: O2_2  and  C3_3 
REMARK    2  A    between atoms: C5_5  and  N6_6 
REMARK    3  A    between atoms: N6_6  and  S7_7 
REMARK    4  A    between atoms: C13_13  and  N14_14 
REMARK    5  A    between atoms: N14_14  and  C15_15 
ROOT
HETATM    1  C15   D T1202     109.988 131.889 135.451  1.00133.69     0.084 A 
HETATM    2  C16   D T1202     110.163 132.739 134.312  1.00133.57     0.035 A 
HETATM    3  C17   D T1202     110.109 134.150 134.429  1.00134.96     0.003 A 
HETATM    4  C18   D T1202     110.288 134.950 133.304  1.00135.95     0.000 A 
HETATM    5  C19   D T1202     110.517 134.358 132.058  1.00140.33     0.002 A 
HETATM    6  C20   D T1202     110.574 132.978 131.945  1.00142.57     0.019 A 
HETATM    7  C21   D T1202     110.390 132.162 133.097  1.00137.04     0.083 A 
HETATM    8  N22   D T1202     110.451 130.815 132.936  1.00136.35    -0.245 NA
HETATM    9  C23   D T1202     110.286 129.978 133.999  1.00136.64     0.083 A 
HETATM   10  C24   D T1202     110.362 128.577 133.754  1.00140.64     0.019 A 
HETATM   11  C25   D T1202     110.201 127.675 134.797  1.00138.49     0.002 A 
HETATM   12  C26   D T1202     109.964 128.151 136.090  1.00134.13     0.000 A 
HETATM   13  C27   D T1202     109.888 129.521 136.323  1.00132.54     0.003 A 
HETATM   14  C28   D T1202     110.052 130.459 135.263  1.00134.07     0.035 A 
ENDROOT
BRANCH   1  15
HETATM   15  N14   D T1202     109.746 132.586 136.713  1.00133.37    -0.243 NA
BRANCH  15  16
HETATM   16  C13   D T1202     110.386 132.341 137.986  1.00139.52     0.104 A 
HETATM   17  C3    D T1202     111.731 132.626 138.122  1.00145.68     0.113 A 
HETATM   18  C4    D T1202     112.367 132.398 139.327  1.00146.28     0.046 A 
HETATM   19  C5    D T1202     111.660 131.882 140.402  1.00143.67     0.096 A 
HETATM   20  C11   D T1202     110.310 131.599 140.263  1.00141.96     0.022 A 
HETATM   21  C12   D T1202     109.673 131.821 139.056  1.00143.27     0.023 A 
BRANCH  17  22
HETATM   22  O2    D T1202     112.435 133.146 137.032  1.00148.39    -0.327 OA
HETATM   23  C1    D T1202     112.815 134.483 137.170  1.00144.79     0.181 C 
ENDBRANCH  17  22
BRANCH  19  24
HETATM   24  N6    D T1202     112.361 131.654 141.652  1.00145.73    -0.162 NA
BRANCH  24  25
HETATM   25  S7    D T1202     113.182 132.887 142.510  1.00154.23     0.266 S 
HETATM   26  C8    D T1202     114.889 132.969 141.905  1.00146.68     0.165 C 
HETATM   27  O9    D T1202     113.225 132.569 144.130  1.00143.37    -0.203 OA
HETATM   28  O10   D T1202     112.433 134.325 142.238  1.00144.20    -0.203 OA
ENDBRANCH  24  25
ENDBRANCH  19  24
ENDBRANCH  15  16
ENDBRANCH   1  15
TORSDOF 5
ENDMDL
MODEL 3
REMARK VINA RESULT:      -5.2      2.085      4.274
REMARK  5 active torsions:
REMARK  status: ('A' for Active; 'I' for Inactive)
REMARK    1  A    between atoms: O2_2  and  C3_3 
REMARK    2  A    between atoms: C5_5  and  N6_6 
REMARK    3  A    between atoms: N6_6  and  S7_7 
REMARK    4  A    between atoms: C13_13  and  N14_14 
REMARK    5  A    between atoms: N14_14  and  C15_15 
ROOT
HETATM    1  C15   D T1202     114.338 130.804 144.598  1.00133.69     0.084 A 
HETATM    2  C16   D T1202     113.902 132.080 145.080  1.00133.57     0.035 A 
HETATM    3  C17   D T1202     113.733 133.180 144.203  1.00134.96     0.003 A 
HETATM    4  C18   D T1202     113.302 134.408 144.700  1.00135.95     0.000 A 
HETATM    5  C19   D T1202     113.041 134.553 146.065  1.00140.33     0.002 A 
HETATM    6  C20   D T1202     113.203 133.474 146.922  1.00142.57     0.019 A 
HETATM    7  C21   D T1202     113.644 132.221 146.412  1.00137.04     0.083 A 
HETATM    8  N22   D T1202     113.791 131.195 147.289  1.00136.35    -0.245 NA
HETATM    9  C23   D T1202     114.207 129.970 146.865  1.00136.64     0.083 A 
HETATM   10  C24   D T1202     114.339 128.942 147.842  1.00140.64     0.019 A 
HETATM   11  C25   D T1202     114.760 127.672 147.471  1.00138.49     0.002 A 
HETATM   12  C26   D T1202     115.054 127.408 146.130  1.00134.13     0.000 A 
HETATM   13  C27   D T1202     114.926 128.417 145.179  1.00132.54     0.003 A 
HETATM   14  C28   D T1202     114.493 129.724 145.545  1.00134.07     0.035 A 
ENDROOT
BRANCH   1  15
HETATM   15  N14   D T1202     114.597 130.738 143.162  1.00133.37    -0.243 NA
BRANCH  15  16
HETATM   16  C13   D T1202     113.759 130.139 142.147  1.00139.52     0.104 A 
HETATM   17  C3    D T1202     114.311 129.203 141.294  1.00145.68     0.113 A 
HETATM   18  C4    D T1202     113.532 128.618 140.313  1.00146.28     0.046 A 
HETATM   19  C5    D T1202     112.197 128.968 140.182  1.00143.67     0.096 A 
HETATM   20  C11   D T1202     111.646 129.906 141.041  1.00141.96     0.022 A 
HETATM   21  C12   D T1202     112.425 130.497 142.018  1.00143.27     0.023 A 
BRANCH  17  22
HETATM   22  O2    D T1202     115.658 128.856 141.435  1.00148.39    -0.327 OA
HETATM   23  C1    D T1202     115.884 127.511 141.737  1.00144.79     0.181 C 
ENDBRANCH  17  22
BRANCH  19  24
HETATM   24  N6    D T1202     111.411 128.334 139.140  1.00145.73    -0.162 NA
BRANCH  24  25
HETATM   25  S7    D T1202     111.141 129.038 137.603  1.00154.23     0.266 S 
HETATM   26  C8    D T1202     112.733 129.165 136.743  1.00146.68     0.165 C 
HETATM   27  O9    D T1202     110.506 130.556 137.737  1.00143.37    -0.203 OA
HETATM   28  O10   D T1202     110.125 128.076 136.738  1.00144.20    -0.203 OA
ENDBRANCH  24  25
ENDBRANCH  19  24
ENDBRANCH  15  16
ENDBRANCH   1  15
TORSDOF 5
ENDMDL
MODEL 4
REMARK VINA RESULT:      -5.0      0.821      3.596
REMARK  5 active torsions:
REMARK  status: ('A' for Active; 'I' for Inactive)
REMARK    1  A    between atoms: O2_2  and  C3_3 
REMARK    2  A    between atoms: C5_5  and  N6_6 
REMARK    3  A    between atoms: N6_6  and  S7_7 
REMARK    4  A    between atoms: C13_13  and  N14_14 
REMARK    5  A    between atoms: N14_14  and  C15_15 
ROOT
HETATM    1  C15   D T1202     114.114 131.393 144.488  1.00133.69     0.084 A 
HETATM    2  C16   D T1202     113.704 132.474 145.333  1.00133.57     0.035 A 
HETATM    3  C17   D T1202     113.400 133.751 144.800  1.00134.96     0.003 A 
HETATM    4  C18   D T1202     112.999 134.782 145.647  1.00135.95     0.000 A 
HETATM    5  C19   D T1202     112.901 134.554 147.022  1.00140.33     0.002 A 
HETATM    6  C20   D T1202     113.195 133.303 147.542  1.00142.57     0.019 A 
HETATM    7  C21   D T1202     113.605 132.252 146.675  1.00137.04     0.083 A 
HETATM    8  N22   D T1202     113.886 131.045 147.230  1.00136.35    -0.245 NA
HETATM    9  C23   D T1202     114.281 129.996 146.456  1.00136.64     0.083 A 
HETATM   10  C24   D T1202     114.560 128.761 147.108  1.00140.64     0.019 A 
HETATM   11  C25   D T1202     114.967 127.657 146.372  1.00138.49     0.002 A 
HETATM   12  C26   D T1202     115.104 127.765 144.985  1.00134.13     0.000 A 
HETATM   13  C27   D T1202     114.833 128.976 144.353  1.00132.54     0.003 A 
HETATM   14  C28   D T1202     114.412 130.117 145.095  1.00134.07     0.035 A 
ENDROOT
BRANCH   1  15
HETATM   15  N14   D T1202     114.198 131.715 143.065  1.00133.37    -0.243 NA
BRANCH  15  16
HETATM   16  C13   D T1202     113.137 131.639 142.085  1.00139.52     0.104 A 
HETATM   17  C3    D T1202     113.052 132.620 141.116  1.00145.68     0.113 A 
HETATM   18  C4    D T1202     112.045 132.571 140.171  1.00146.28     0.046 A 
HETATM   19  C5    D T1202     111.118 131.541 140.192  1.00143.67     0.096 A 
HETATM   20  C11   D T1202     111.207 130.557 141.164  1.00141.96     0.022 A 
HETATM   21  C12   D T1202     112.210 130.607 142.115  1.00143.27     0.023 A 
BRANCH  17  22
HETATM   22  O2    D T1202     113.992 133.654 141.104  1.00148.39    -0.327 OA
HETATM   23  C1    D T1202     113.462 134.926 141.337  1.00144.79     0.181 C 
ENDBRANCH  17  22
BRANCH  19  24
HETATM   24  N6    D T1202     110.074 131.523 139.184  1.00145.73    -0.162 NA
BRANCH  24  25
HETATM   25  S7    D T1202     110.387 131.392 137.506  1.00154.23     0.266 S 
HETATM   26  C8    D T1202     109.375 132.620 136.636  1.00146.68     0.165 C 
HETATM   27  O9    D T1202     109.986 129.896 136.933  1.00143.37    -0.203 OA
HETATM   28  O10   D T1202     111.978 131.694 137.227  1.00144.20    -0.203 OA
ENDBRANCH  24  25
ENDBRANCH  19  24
ENDBRANCH  15  16
ENDBRANCH   1  15
TORSDOF 5
ENDMDL
MODEL 5
REMARK VINA RESULT:      -5.0      1.731      4.237
REMARK  5 active torsions:
REMARK  status: ('A' for Active; 'I' for Inactive)
REMARK    1  A    between atoms: O2_2  and  C3_3 
REMARK    2  A    between atoms: C5_5  and  N6_6 
REMARK    3  A    between atoms: N6_6  and  S7_7 
REMARK    4  A    between atoms: C13_13  and  N14_14 
REMARK    5  A    between atoms: N14_14  and  C15_15 
ROOT
HETATM    1  C15   D T1202     113.459 133.739 143.739  1.00133.69     0.084 A 
HETATM    2  C16   D T1202     112.900 134.988 144.164  1.00133.57     0.035 A 
HETATM    3  C17   D T1202     112.620 136.023 143.238  1.00134.96     0.003 A 
HETATM    4  C18   D T1202     112.072 137.224 143.681  1.00135.95     0.000 A 
HETATM    5  C19   D T1202     111.802 137.407 145.040  1.00140.33     0.002 A 
HETATM    6  C20   D T1202     112.073 136.392 145.944  1.00142.57     0.019 A 
HETATM    7  C21   D T1202     112.634 135.166 145.490  1.00137.04     0.083 A 
HETATM    8  N22   D T1202     112.885 134.202 146.413  1.00136.35    -0.245 NA
HETATM    9  C23   D T1202     113.419 133.005 146.043  1.00136.64     0.083 A 
HETATM   10  C24   D T1202     113.656 132.043 147.067  1.00140.64     0.019 A 
HETATM   11  C25   D T1202     114.199 130.805 146.752  1.00138.49     0.002 A 
HETATM   12  C26   D T1202     114.513 130.508 145.422  1.00134.13     0.000 A 
HETATM   13  C27   D T1202     114.282 131.453 144.426  1.00132.54     0.003 A 
HETATM   14  C28   D T1202     113.724 132.727 144.734  1.00134.07     0.035 A 
ENDROOT
BRANCH   1  15
HETATM   15  N14   D T1202     113.718 133.632 142.305  1.00133.37    -0.243 NA
BRANCH  15  16
HETATM   16  C13   D T1202     112.867 133.029 141.304  1.00139.52     0.104 A 
HETATM   17  C3    D T1202     113.261 133.069 139.981  1.00145.68     0.113 A 
HETATM   18  C4    D T1202     112.464 132.502 139.005  1.00146.28     0.046 A 
HETATM   19  C5    D T1202     111.266 131.894 139.349  1.00143.67     0.096 A 
HETATM   20  C11   D T1202     110.874 131.854 140.678  1.00141.96     0.022 A 
HETATM   21  C12   D T1202     111.667 132.426 141.655  1.00143.27     0.023 A 
BRANCH  17  22
HETATM   22  O2    D T1202     114.471 133.684 139.644  1.00148.39    -0.327 OA
HETATM   23  C1    D T1202     114.341 134.830 138.857  1.00144.79     0.181 C 
ENDBRANCH  17  22
BRANCH  19  24
HETATM   24  N6    D T1202     110.454 131.311 138.297  1.00145.73    -0.162 NA
BRANCH  24  25
HETATM   25  S7    D T1202     109.747 132.227 137.035  1.00154.23     0.266 S 
HETATM   26  C8    D T1202     109.375 131.112 135.655  1.00146.68     0.165 C 
HETATM   27  O9    D T1202     110.776 133.397 136.488  1.00143.37    -0.203 OA
HETATM   28  O10   D T1202     108.354 132.912 137.578  1.00144.20    -0.203 OA
ENDBRANCH  24  25
ENDBRANCH  19  24
ENDBRANCH  15  16
ENDBRANCH   1  15
TORSDOF 5
ENDMDL
MODEL 6
REMARK VINA RESULT:      -5.0      1.662      2.522
REMARK  5 active torsions:
REMARK  status: ('A' for Active; 'I' for Inactive)
REMARK    1  A    between atoms: O2_2  and  C3_3 
REMARK    2  A    between atoms: C5_5  and  N6_6 
REMARK    3  A    between atoms: N6_6  and  S7_7 
REMARK    4  A    between atoms: C13_13  and  N14_14 
REMARK    5  A    between atoms: N14_14  and  C15_15 
ROOT
HETATM    1  C15   D T1202     113.568 133.099 143.603  1.00133.69     0.084 A 
HETATM    2  C16   D T1202     113.767 132.271 144.755  1.00133.57     0.035 A 
HETATM    3  C17   D T1202     114.228 130.937 144.632  1.00134.96     0.003 A 
HETATM    4  C18   D T1202     114.418 130.158 145.771  1.00135.95     0.000 A 
HETATM    5  C19   D T1202     114.150 130.694 147.034  1.00140.33     0.002 A 
HETATM    6  C20   D T1202     113.703 132.001 147.152  1.00142.57     0.019 A 
HETATM    7  C21   D T1202     113.509 132.795 145.987  1.00137.04     0.083 A 
HETATM    8  N22   D T1202     113.066 134.068 146.153  1.00136.35    -0.245 NA
HETATM    9  C23   D T1202     112.863 134.881 145.079  1.00136.64     0.083 A 
HETATM   10  C24   D T1202     112.397 136.203 145.330  1.00140.64     0.019 A 
HETATM   11  C25   D T1202     112.171 137.078 144.276  1.00138.49     0.002 A 
HETATM   12  C26   D T1202     112.402 136.651 142.965  1.00134.13     0.000 A 
HETATM   13  C27   D T1202     112.854 135.357 142.725  1.00132.54     0.003 A 
HETATM   14  C28   D T1202     113.093 134.449 143.797  1.00134.07     0.035 A 
ENDROOT
BRANCH   1  15
HETATM   15  N14   D T1202     113.863 132.461 142.322  1.00133.37    -0.243 NA
BRANCH  15  16
HETATM   16  C13   D T1202     112.923 132.109 141.281  1.00139.52     0.104 A 
HETATM   17  C3    D T1202     113.402 131.832 140.015  1.00145.68     0.113 A 
HETATM   18  C4    D T1202     112.523 131.497 139.003  1.00146.28     0.046 A 
HETATM   19  C5    D T1202     111.161 131.439 139.252  1.00143.67     0.096 A 
HETATM   20  C11   D T1202     110.683 131.715 140.524  1.00141.96     0.022 A 
HETATM   21  C12   D T1202     111.560 132.057 141.537  1.00143.27     0.023 A 
BRANCH  17  22
HETATM   22  O2    D T1202     114.778 131.893 139.774  1.00148.39    -0.327 OA
HETATM   23  C1    D T1202     115.192 133.012 139.048  1.00144.79     0.181 C 
ENDBRANCH  17  22
BRANCH  19  24
HETATM   24  N6    D T1202     110.268 131.084 138.164  1.00145.73    -0.162 NA
BRANCH  24  25
HETATM   25  S7    D T1202     109.788 132.185 136.943  1.00154.23     0.266 S 
HETATM   26  C8    D T1202     109.497 131.254 135.414  1.00146.68     0.165 C 
HETATM   27  O9    D T1202     110.961 133.308 136.647  1.00143.37    -0.203 OA
HETATM   28  O10   D T1202     108.397 132.931 137.405  1.00144.20    -0.203 OA
ENDBRANCH  24  25
ENDBRANCH  19  24
ENDBRANCH  15  16
ENDBRANCH   1  15
TORSDOF 5
ENDMDL
MODEL 7
REMARK VINA RESULT:      -4.9      2.510      3.970
REMARK  5 active torsions:
REMARK  status: ('A' for Active; 'I' for Inactive)
REMARK    1  A    between atoms: O2_2  and  C3_3 
REMARK    2  A    between atoms: C5_5  and  N6_6 
REMARK    3  A    between atoms: N6_6  and  S7_7 
REMARK    4  A    between atoms: C13_13  and  N14_14 
REMARK    5  A    between atoms: N14_14  and  C15_15 
ROOT
HETATM    1  C15   D T1202     113.200 134.761 143.380  1.00133.69     0.084 A 
HETATM    2  C16   D T1202     113.150 134.221 144.706  1.00133.57     0.035 A 
HETATM    3  C17   D T1202     113.587 132.901 144.980  1.00134.96     0.003 A 
HETATM    4  C18   D T1202     113.532 132.405 146.280  1.00135.95     0.000 A 
HETATM    5  C19   D T1202     113.040 133.210 147.312  1.00140.33     0.002 A 
HETATM    6  C20   D T1202     112.616 134.502 147.043  1.00142.57     0.019 A 
HETATM    7  C21   D T1202     112.673 135.006 145.713  1.00137.04     0.083 A 
HETATM    8  N22   D T1202     112.243 136.277 145.498  1.00136.35    -0.245 NA
HETATM    9  C23   D T1202     112.274 136.820 144.249  1.00136.64     0.083 A 
HETATM   10  C24   D T1202     111.807 138.157 144.099  1.00140.64     0.019 A 
HETATM   11  C25   D T1202     111.813 138.766 142.851  1.00138.49     0.002 A 
HETATM   12  C26   D T1202     112.281 138.056 141.741  1.00134.13     0.000 A 
HETATM   13  C27   D T1202     112.734 136.748 141.893  1.00132.54     0.003 A 
HETATM   14  C28   D T1202     112.735 136.112 143.168  1.00134.07     0.035 A 
ENDROOT
BRANCH   1  15
HETATM   15  N14   D T1202     113.719 133.854 142.360  1.00133.37    -0.243 NA
BRANCH  15  16
HETATM   16  C13   D T1202     112.974 133.207 141.302  1.00139.52     0.104 A 
HETATM   17  C3    D T1202     113.439 133.302 140.005  1.00145.68     0.113 A 
HETATM   18  C4    D T1202     112.743 132.695 138.976  1.00146.28     0.046 A 
HETATM   19  C5    D T1202     111.578 131.993 139.241  1.00143.67     0.096 A 
HETATM   20  C11   D T1202     111.115 131.898 140.544  1.00141.96     0.022 A 
HETATM   21  C12   D T1202     111.806 132.509 141.574  1.00143.27     0.023 A 
BRANCH  17  22
HETATM   22  O2    D T1202     114.615 134.012 139.748  1.00148.39    -0.327 OA
HETATM   23  C1    D T1202     114.451 135.131 138.928  1.00144.79     0.181 C 
ENDBRANCH  17  22
BRANCH  19  24
HETATM   24  N6    D T1202     110.874 131.370 138.135  1.00145.73    -0.162 NA
BRANCH  24  25
HETATM   25  S7    D T1202     109.906 132.242 137.024  1.00154.23     0.266 S 
HETATM   26  C8    D T1202     109.421 131.122 135.684  1.00146.68     0.165 C 
HETATM   27  O9    D T1202     110.737 133.507 136.363  1.00143.37    -0.203 OA
HETATM   28  O10   D T1202     108.561 132.792 137.794  1.00144.20    -0.203 OA
ENDBRANCH  24  25
ENDBRANCH  19  24
ENDBRANCH  15  16
ENDBRANCH   1  15
TORSDOF 5
ENDMDL
MODEL 8
REMARK VINA RESULT:      -4.9      5.178      9.734
REMARK  5 active torsions:
REMARK  status: ('A' for Active; 'I' for Inactive)
REMARK    1  A    between atoms: O2_2  and  C3_3 
REMARK    2  A    between atoms: C5_5  and  N6_6 
REMARK    3  A    between atoms: N6_6  and  S7_7 
REMARK    4  A    between atoms: C13_13  and  N14_14 
REMARK    5  A    between atoms: N14_14  and  C15_15 
ROOT
HETATM    1  C15   D T1202     110.151 131.899 135.541  1.00133.69     0.084 A 
HETATM    2  C16   D T1202     110.114 130.477 135.375  1.00133.57     0.035 A 
HETATM    3  C17   D T1202     110.022 129.608 136.490  1.00134.96     0.003 A 
HETATM    4  C18   D T1202     109.983 128.229 136.297  1.00135.95     0.000 A 
HETATM    5  C19   D T1202     110.038 127.705 135.003  1.00140.33     0.002 A 
HETATM    6  C20   D T1202     110.125 128.557 133.912  1.00142.57     0.019 A 
HETATM    7  C21   D T1202     110.165 129.966 134.112  1.00137.04     0.083 A 
HETATM    8  N22   D T1202     110.254 130.760 133.014  1.00136.35    -0.245 NA
HETATM    9  C23   D T1202     110.294 132.116 133.136  1.00136.64     0.083 A 
HETATM   10  C24   D T1202     110.387 132.884 131.940  1.00140.64     0.019 A 
HETATM   11  C25   D T1202     110.433 134.271 132.000  1.00138.49     0.002 A 
HETATM   12  C26   D T1202     110.386 134.908 133.244  1.00134.13     0.000 A 
HETATM   13  C27   D T1202     110.298 134.152 134.409  1.00132.54     0.003 A 
HETATM   14  C28   D T1202     110.249 132.729 134.363  1.00134.07     0.035 A 
ENDROOT
BRANCH   1  15
HETATM   15  N14   D T1202     110.096 132.364 136.925  1.00133.37    -0.243 NA
BRANCH  15  16
HETATM   16  C13   D T1202     111.213 132.627 137.805  1.00139.52     0.104 A 
HETATM   17  C3    D T1202     111.139 132.209 139.120  1.00145.68     0.113 A 
HETATM   18  C4    D T1202     112.192 132.452 139.982  1.00146.28     0.046 A 
HETATM   19  C5    D T1202     113.322 133.116 139.532  1.00143.67     0.096 A 
HETATM   20  C11   D T1202     113.394 133.533 138.212  1.00141.96     0.022 A 
HETATM   21  C12   D T1202     112.340 133.297 137.350  1.00143.27     0.023 A 
BRANCH  17  22
HETATM   22  O2    D T1202     109.995 131.539 139.563  1.00148.39    -0.327 OA
HETATM   23  C1    D T1202     110.028 131.158 140.906  1.00144.79     0.181 C 
ENDBRANCH  17  22
BRANCH  19  24
HETATM   24  N6    D T1202     114.407 133.355 140.467  1.00145.73    -0.162 NA
BRANCH  24  25
HETATM   25  S7    D T1202     114.534 134.771 141.420  1.00154.23     0.266 S 
HETATM   26  C8    D T1202     115.319 136.066 140.422  1.00146.68     0.165 C 
HETATM   27  O9    D T1202     115.468 134.516 142.758  1.00143.37    -0.203 OA
HETATM   28  O10   D T1202     113.029 135.259 141.868  1.00144.20    -0.203 OA
ENDBRANCH  24  25
ENDBRANCH  19  24
ENDBRANCH  15  16
ENDBRANCH   1  15
TORSDOF 5
ENDMDL
MODEL 9
REMARK VINA RESULT:      -4.8      4.402      9.707
REMARK  5 active torsions:
REMARK  status: ('A' for Active; 'I' for Inactive)
REMARK    1  A    between atoms: O2_2  and  C3_3 
REMARK    2  A    between atoms: C5_5  and  N6_6 
REMARK    3  A    between atoms: N6_6  and  S7_7 
REMARK    4  A    between atoms: C13_13  and  N14_14 
REMARK    5  A    between atoms: N14_14  and  C15_15 
ROOT
HETATM    1  C15   D T1202     109.931 132.069 135.291  1.00133.69     0.084 A 
HETATM    2  C16   D T1202     110.002 130.643 135.177  1.00133.57     0.035 A 
HETATM    3  C17   D T1202     109.728 129.802 136.283  1.00134.96     0.003 A 
HETATM    4  C18   D T1202     109.801 128.418 136.140  1.00135.95     0.000 A 
HETATM    5  C19   D T1202     110.148 127.863 134.905  1.00140.33     0.002 A 
HETATM    6  C20   D T1202     110.412 128.688 133.823  1.00142.57     0.019 A 
HETATM    7  C21   D T1202     110.338 130.101 133.972  1.00137.04     0.083 A 
HETATM    8  N22   D T1202     110.608 130.868 132.884  1.00136.35    -0.245 NA
HETATM    9  C23   D T1202     110.552 132.227 132.959  1.00136.64     0.083 A 
HETATM   10  C24   D T1202     110.849 132.966 131.778  1.00140.64     0.019 A 
HETATM   11  C25   D T1202     110.810 134.354 131.792  1.00138.49     0.002 A 
HETATM   12  C26   D T1202     110.477 135.022 132.974  1.00134.13     0.000 A 
HETATM   13  C27   D T1202     110.190 134.295 134.126  1.00132.54     0.003 A 
HETATM   14  C28   D T1202     110.225 132.871 134.126  1.00134.07     0.035 A 
ENDROOT
BRANCH   1  15
HETATM   15  N14   D T1202     109.569 132.568 136.616  1.00133.37    -0.243 NA
BRANCH  15  16
HETATM   16  C13   D T1202     110.284 132.359 137.856  1.00139.52     0.104 A 
HETATM   17  C3    D T1202     111.631 132.662 137.909  1.00145.68     0.113 A 
HETATM   18  C4    D T1202     112.336 132.468 139.081  1.00146.28     0.046 A 
HETATM   19  C5    D T1202     111.698 131.967 140.205  1.00143.67     0.096 A 
HETATM   20  C11   D T1202     110.346 131.666 140.149  1.00141.96     0.022 A 
HETATM   21  C12   D T1202     109.639 131.854 138.975  1.00143.27     0.023 A 
BRANCH  17  22
HETATM   22  O2    D T1202     112.266 133.166 136.770  1.00148.39    -0.327 OA
HETATM   23  C1    D T1202     113.397 132.451 136.369  1.00144.79     0.181 C 
ENDBRANCH  17  22
BRANCH  19  24
HETATM   24  N6    D T1202     112.472 131.775 141.417  1.00145.73    -0.162 NA
BRANCH  24  25
HETATM   25  S7    D T1202     113.499 130.430 141.676  1.00154.23     0.266 S 
HETATM   26  C8    D T1202     115.163 130.859 141.097  1.00146.68     0.165 C 
HETATM   27  O9    D T1202     112.986 129.107 140.832  1.00143.37    -0.203 OA
HETATM   28  O10   D T1202     113.548 130.088 143.284  1.00144.20    -0.203 OA
ENDBRANCH  24  25
ENDBRANCH  19  24
ENDBRANCH  15  16
ENDBRANCH   1  15
TORSDOF 5
ENDMDL
