MODEL 1
REMARK VINA RESULT:      -6.7      0.000      0.000
REMARK  2 active torsions:
REMARK  status: ('A' for Active; 'I' for Inactive)
REMARK    1  A    between atoms: C5_4  and  O7_13 
REMARK    2  A    between atoms: C8_10  and  O7_13 
ROOT
HETATM    1  O7    D T 801       2.211   7.253   8.042  1.00 44.91    -0.304 OA
ENDROOT
BRANCH   1   2
HETATM    2  C5    D T 801       1.129   7.018   7.226  1.00 45.35     0.125 A 
HETATM    3  C6    D T 801       0.895   7.939   6.165  1.00 44.30     0.154 A 
HETATM    4  C1    D T 801      -0.244   7.721   5.306  1.00 43.93     0.041 A 
HETATM    5  O17   D T 801       1.705   9.001   5.955  1.00 43.09    -0.188 OA
HETATM    6  C2    D T 801      -1.076   6.587   5.574  1.00 44.08     0.060 A 
HETATM    7  C3    D T 801      -0.859   5.656   6.629  1.00 44.17     0.014 A 
HETATM    8 CL14   D T 801      -2.441   6.325   4.555  1.00 45.88    -0.082 Cl
HETATM    9  C4    D T 801       0.267   5.885   7.463  1.00 45.15     0.028 A 
ENDBRANCH   1   2
BRANCH   1  10
HETATM   10  C8    D T 801       2.984   6.269   8.653  1.00 47.49     0.111 A 
HETATM   11  C9    D T 801       4.130   5.759   7.936  1.00 48.15     0.081 A 
HETATM   12  C10   D T 801       4.956   4.751   8.516  1.00 48.95     0.025 A 
HETATM   13 CL16   D T 801       4.553   6.353   6.332  1.00 47.31    -0.080 Cl
HETATM   14  C11   D T 801       4.630   4.246   9.826  1.00 49.51     0.059 A 
HETATM   15  C12   D T 801       3.495   4.737  10.556  1.00 49.76     0.013 A 
HETATM   16 CL15   D T 801       5.616   3.026  10.546  1.00 51.18    -0.082 Cl
HETATM   17  C13   D T 801       2.692   5.731   9.969  1.00 48.54     0.026 A 
ENDBRANCH   1  10
TORSDOF 2
ENDMDL
MODEL 2
REMARK VINA RESULT:      -6.6      1.393      6.000
REMARK  2 active torsions:
REMARK  status: ('A' for Active; 'I' for Inactive)
REMARK    1  A    between atoms: C5_4  and  O7_13 
REMARK    2  A    between atoms: C8_10  and  O7_13 
ROOT
HETATM    1  O7    D T 801       2.096   7.483   7.578  1.00 44.91    -0.304 OA
ENDROOT
BRANCH   1   2
HETATM    2  C5    D T 801       2.849   6.565   8.269  1.00 45.35     0.125 A 
HETATM    3  C6    D T 801       4.013   6.053   7.627  1.00 44.30     0.154 A 
HETATM    4  C1    D T 801       4.810   5.075   8.328  1.00 43.93     0.041 A 
HETATM    5  O17   D T 801       4.375   6.457   6.388  1.00 43.09    -0.188 OA
HETATM    6  C2    D T 801       4.381   4.675   9.634  1.00 44.08     0.060 A 
HETATM    7  C3    D T 801       3.222   5.174  10.292  1.00 44.17     0.014 A 
HETATM    8 CL14   D T 801       5.326   3.504  10.473  1.00 45.88    -0.082 Cl
HETATM    9  C4    D T 801       2.450   6.136   9.588  1.00 45.15     0.028 A 
ENDBRANCH   1   2
BRANCH   1  10
HETATM   10  C8    D T 801       0.948   7.192   6.845  1.00 47.49     0.111 A 
HETATM   11  C9    D T 801       0.517   8.144   5.846  1.00 48.15     0.081 A 
HETATM   12  C10   D T 801      -0.651   7.895   5.067  1.00 48.95     0.025 A 
HETATM   13 CL16   D T 801       1.407   9.635   5.549  1.00 47.31    -0.080 Cl
HETATM   14  C11   D T 801      -1.399   6.683   5.292  1.00 49.51     0.059 A 
HETATM   15  C12   D T 801      -0.990   5.726   6.281  1.00 49.76     0.013 A 
HETATM   16 CL15   D T 801      -2.817   6.363   4.361  1.00 51.18    -0.082 Cl
HETATM   17  C13   D T 801       0.165   5.986   7.039  1.00 48.54     0.026 A 
ENDBRANCH   1  10
TORSDOF 2
ENDMDL
MODEL 3
REMARK VINA RESULT:      -6.5      2.714      4.071
REMARK  2 active torsions:
REMARK  status: ('A' for Active; 'I' for Inactive)
REMARK    1  A    between atoms: C5_4  and  O7_13 
REMARK    2  A    between atoms: C8_10  and  O7_13 
ROOT
HETATM    1  O7    D T 801       2.806   8.086   7.869  1.00 44.91    -0.304 OA
ENDROOT
BRANCH   1   2
HETATM    2  C5    D T 801       3.422   8.169   6.643  1.00 45.35     0.125 A 
HETATM    3  C6    D T 801       3.096   9.282   5.817  1.00 44.30     0.154 A 
HETATM    4  C1    D T 801       3.720   9.380   4.519  1.00 43.93     0.041 A 
HETATM    5  O17   D T 801       2.220  10.231   6.218  1.00 43.09    -0.188 OA
HETATM    6  C2    D T 801       4.633   8.347   4.137  1.00 44.08     0.060 A 
HETATM    7  C3    D T 801       4.974   7.227   4.948  1.00 44.17     0.014 A 
HETATM    8 CL14   D T 801       5.377   8.456   2.586  1.00 45.88    -0.082 Cl
HETATM    9  C4    D T 801       4.351   7.147   6.221  1.00 45.15     0.028 A 
ENDBRANCH   1   2
BRANCH   1  10
HETATM   10  C8    D T 801       2.433   6.903   8.503  1.00 47.49     0.111 A 
HETATM   11  C9    D T 801       1.172   6.301   8.135  1.00 48.15     0.081 A 
HETATM   12  C10   D T 801       0.742   5.090   8.752  1.00 48.95     0.025 A 
HETATM   13 CL16   D T 801       0.122   7.029   6.922  1.00 47.31    -0.080 Cl
HETATM   14  C11   D T 801       1.582   4.475   9.750  1.00 49.51     0.059 A 
HETATM   15  C12   D T 801       2.837   5.058  10.132  1.00 49.76     0.013 A 
HETATM   16 CL15   D T 801       1.080   3.010  10.511  1.00 51.18    -0.082 Cl
HETATM   17  C13   D T 801       3.246   6.252   9.513  1.00 48.54     0.026 A 
ENDBRANCH   1  10
TORSDOF 2
ENDMDL
MODEL 4
REMARK VINA RESULT:      -6.5      1.870      2.881
REMARK  2 active torsions:
REMARK  status: ('A' for Active; 'I' for Inactive)
REMARK    1  A    between atoms: C5_4  and  O7_13 
REMARK    2  A    between atoms: C8_10  and  O7_13 
ROOT
HETATM    1  O7    D T 801       1.072   5.682   9.241  1.00 44.91    -0.304 OA
ENDROOT
BRANCH   1   2
HETATM    2  C5    D T 801       0.314   5.939   8.124  1.00 45.35     0.125 A 
HETATM    3  C6    D T 801      -0.530   4.894   7.648  1.00 44.30     0.154 A 
HETATM    4  C1    D T 801      -1.323   5.137   6.467  1.00 43.93     0.041 A 
HETATM    5  O17   D T 801      -0.595   3.696   8.271  1.00 43.09    -0.188 OA
HETATM    6  C2    D T 801      -1.214   6.418   5.840  1.00 44.08     0.060 A 
HETATM    7  C3    D T 801      -0.378   7.475   6.299  1.00 44.17     0.014 A 
HETATM    8 CL14   D T 801      -2.154   6.712   4.426  1.00 45.88    -0.082 Cl
HETATM    9  C4    D T 801       0.395   7.220   7.463  1.00 45.15     0.028 A 
ENDBRANCH   1   2
BRANCH   1  10
HETATM   10  C8    D T 801       2.430   5.376   9.237  1.00 47.49     0.111 A 
HETATM   11  C9    D T 801       2.865   4.191   9.939  1.00 48.15     0.081 A 
HETATM   12  C10   D T 801       4.244   3.830   9.966  1.00 48.95     0.025 A 
HETATM   13 CL16   D T 801       1.722   3.148  10.783  1.00 47.31    -0.080 Cl
HETATM   14  C11   D T 801       5.200   4.667   9.285  1.00 49.51     0.059 A 
HETATM   15  C12   D T 801       4.791   5.851   8.583  1.00 49.76     0.013 A 
HETATM   16 CL15   D T 801       6.875   4.251   9.307  1.00 51.18    -0.082 Cl
HETATM   17  C13   D T 801       3.427   6.191   8.567  1.00 48.54     0.026 A 
ENDBRANCH   1  10
TORSDOF 2
ENDMDL
MODEL 5
REMARK VINA RESULT:      -6.5      1.482      2.212
REMARK  2 active torsions:
REMARK  status: ('A' for Active; 'I' for Inactive)
REMARK    1  A    between atoms: C5_4  and  O7_13 
REMARK    2  A    between atoms: C8_10  and  O7_13 
ROOT
HETATM    1  O7    D T 801       2.022   7.188   7.941  1.00 44.91    -0.304 OA
ENDROOT
BRANCH   1   2
HETATM    2  C5    D T 801       0.941   6.936   7.132  1.00 45.35     0.125 A 
HETATM    3  C6    D T 801       0.629   7.903   6.133  1.00 44.30     0.154 A 
HETATM    4  C1    D T 801      -0.512   7.667   5.281  1.00 43.93     0.041 A 
HETATM    5  O17   D T 801       1.369   9.024   5.975  1.00 43.09    -0.188 OA
HETATM    6  C2    D T 801      -1.268   6.470   5.493  1.00 44.08     0.060 A 
HETATM    7  C3    D T 801      -0.973   5.492   6.484  1.00 44.17     0.014 A 
HETATM    8 CL14   D T 801      -2.635   6.185   4.483  1.00 45.88    -0.082 Cl
HETATM    9  C4    D T 801       0.154   5.739   7.312  1.00 45.15     0.028 A 
ENDBRANCH   1   2
BRANCH   1  10
HETATM   10  C8    D T 801       3.290   6.631   7.785  1.00 47.49     0.111 A 
HETATM   11  C9    D T 801       3.757   5.706   8.791  1.00 48.15     0.081 A 
HETATM   12  C10   D T 801       5.046   5.106   8.679  1.00 48.95     0.025 A 
HETATM   13 CL16   D T 801       2.765   5.281  10.184  1.00 47.31    -0.080 Cl
HETATM   14  C11   D T 801       5.878   5.439   7.550  1.00 49.51     0.059 A 
HETATM   15  C12   D T 801       5.435   6.358   6.540  1.00 49.76     0.013 A 
HETATM   16 CL15   D T 801       7.442   4.726   7.396  1.00 51.18    -0.082 Cl
HETATM   17  C13   D T 801       4.160   6.939   6.665  1.00 48.54     0.026 A 
ENDBRANCH   1  10
TORSDOF 2
ENDMDL
MODEL 6
REMARK VINA RESULT:      -6.4      1.794      6.144
REMARK  2 active torsions:
REMARK  status: ('A' for Active; 'I' for Inactive)
REMARK    1  A    between atoms: C5_4  and  O7_13 
REMARK    2  A    between atoms: C8_10  and  O7_13 
ROOT
HETATM    1  O7    D T 801       2.280   7.724   7.416  1.00 44.91    -0.304 OA
ENDROOT
BRANCH   1   2
HETATM    2  C5    D T 801       3.461   7.020   7.399  1.00 45.35     0.125 A 
HETATM    3  C6    D T 801       3.843   6.351   8.597  1.00 44.30     0.154 A 
HETATM    4  C1    D T 801       5.087   5.618   8.608  1.00 43.93     0.041 A 
HETATM    5  O17   D T 801       3.075   6.394   9.710  1.00 43.09    -0.188 OA
HETATM    6  C2    D T 801       5.867   5.610   7.408  1.00 44.08     0.060 A 
HETATM    7  C3    D T 801       5.503   6.271   6.201  1.00 44.17     0.014 A 
HETATM    8 CL14   D T 801       7.356   4.741   7.416  1.00 45.88    -0.082 Cl
HETATM    9  C4    D T 801       4.276   6.986   6.209  1.00 45.15     0.028 A 
ENDBRANCH   1   2
BRANCH   1  10
HETATM   10  C8    D T 801       1.116   7.355   6.747  1.00 47.49     0.111 A 
HETATM   11  C9    D T 801       0.696   8.154   5.618  1.00 48.15     0.081 A 
HETATM   12  C10   D T 801      -0.488   7.820   4.897  1.00 48.95     0.025 A 
HETATM   13 CL16   D T 801       1.618   9.559   5.089  1.00 47.31    -0.080 Cl
HETATM   14  C11   D T 801      -1.262   6.677   5.311  1.00 49.51     0.059 A 
HETATM   15  C12   D T 801      -0.864   5.871   6.430  1.00 49.76     0.013 A 
HETATM   16 CL15   D T 801      -2.699   6.256   4.453  1.00 51.18    -0.082 Cl
HETATM   17  C13   D T 801       0.306   6.214   7.130  1.00 48.54     0.026 A 
ENDBRANCH   1  10
TORSDOF 2
ENDMDL
MODEL 7
REMARK VINA RESULT:      -6.4      2.789      5.255
REMARK  2 active torsions:
REMARK  status: ('A' for Active; 'I' for Inactive)
REMARK    1  A    between atoms: C5_4  and  O7_13 
REMARK    2  A    between atoms: C8_10  and  O7_13 
ROOT
HETATM    1  O7    D T 801       2.281   8.011   7.557  1.00 44.91    -0.304 OA
ENDROOT
BRANCH   1   2
HETATM    2  C5    D T 801       2.071   6.862   8.282  1.00 45.35     0.125 A 
HETATM    3  C6    D T 801       0.902   6.104   7.986  1.00 44.30     0.154 A 
HETATM    4  C1    D T 801       0.653   4.902   8.744  1.00 43.93     0.041 A 
HETATM    5  O17   D T 801       0.032   6.488   7.024  1.00 43.09    -0.188 OA
HETATM    6  C2    D T 801       1.600   4.542   9.756  1.00 44.08     0.060 A 
HETATM    7  C3    D T 801       2.773   5.285  10.067  1.00 44.17     0.014 A 
HETATM    8 CL14   D T 801       1.304   3.111  10.669  1.00 45.88    -0.082 Cl
HETATM    9  C4    D T 801       3.003   6.464   9.310  1.00 45.15     0.028 A 
ENDBRANCH   1   2
BRANCH   1  10
HETATM   10  C8    D T 801       3.013   8.093   6.375  1.00 47.49     0.111 A 
HETATM   11  C9    D T 801       2.440   8.825   5.268  1.00 48.15     0.081 A 
HETATM   12  C10   D T 801       3.147   8.940   4.035  1.00 48.95     0.025 A 
HETATM   13 CL16   D T 801       0.863   9.600   5.393  1.00 47.31    -0.080 Cl
HETATM   14  C11   D T 801       4.438   8.314   3.906  1.00 49.51     0.059 A 
HETATM   15  C12   D T 801       5.025   7.580   4.992  1.00 49.76     0.013 A 
HETATM   16 CL15   D T 801       5.310   8.439   2.422  1.00 51.18    -0.082 Cl
HETATM   17  C13   D T 801       4.315   7.476   6.201  1.00 48.54     0.026 A 
ENDBRANCH   1  10
TORSDOF 2
ENDMDL
MODEL 8
REMARK VINA RESULT:      -6.3      2.678      5.174
REMARK  2 active torsions:
REMARK  status: ('A' for Active; 'I' for Inactive)
REMARK    1  A    between atoms: C5_4  and  O7_13 
REMARK    2  A    between atoms: C8_10  and  O7_13 
ROOT
HETATM    1  O7    D T 801       3.810   7.133   8.394  1.00 44.91    -0.304 OA
ENDROOT
BRANCH   1   2
HETATM    2  C5    D T 801       4.604   7.371   7.298  1.00 45.35     0.125 A 
HETATM    3  C6    D T 801       4.542   8.667   6.711  1.00 44.30     0.154 A 
HETATM    4  C1    D T 801       5.356   8.934   5.549  1.00 43.93     0.041 A 
HETATM    5  O17   D T 801       3.743   9.636   7.213  1.00 43.09    -0.188 OA
HETATM    6  C2    D T 801       6.180   7.874   5.052  1.00 44.08     0.060 A 
HETATM    7  C3    D T 801       6.255   6.573   5.624  1.00 44.17     0.014 A 
HETATM    8 CL14   D T 801       7.149   8.186   3.662  1.00 45.88    -0.082 Cl
HETATM    9  C4    D T 801       5.449   6.328   6.767  1.00 45.15     0.028 A 
ENDBRANCH   1   2
BRANCH   1  10
HETATM   10  C8    D T 801       2.560   6.520   8.363  1.00 47.49     0.111 A 
HETATM   11  C9    D T 801       2.280   5.492   9.339  1.00 48.15     0.081 A 
HETATM   12  C10   D T 801       1.015   4.832   9.353  1.00 48.95     0.025 A 
HETATM   13 CL16   D T 801       3.474   5.016  10.544  1.00 47.31    -0.080 Cl
HETATM   14  C11   D T 801       0.022   5.202   8.376  1.00 49.51     0.059 A 
HETATM   15  C12   D T 801       0.280   6.218   7.395  1.00 49.76     0.013 A 
HETATM   16 CL15   D T 801      -1.514   4.414   8.373  1.00 51.18    -0.082 Cl
HETATM   17  C13   D T 801       1.531   6.859   7.397  1.00 48.54     0.026 A 
ENDBRANCH   1  10
TORSDOF 2
ENDMDL
MODEL 9
REMARK VINA RESULT:      -6.2      3.141      5.724
REMARK  2 active torsions:
REMARK  status: ('A' for Active; 'I' for Inactive)
REMARK    1  A    between atoms: C5_4  and  O7_13 
REMARK    2  A    between atoms: C8_10  and  O7_13 
ROOT
HETATM    1  O7    D T 801       4.649   7.431   8.071  1.00 44.91    -0.304 OA
ENDROOT
BRANCH   1   2
HETATM    2  C5    D T 801       3.964   6.420   8.701  1.00 45.35     0.125 A 
HETATM    3  C6    D T 801       4.681   5.226   8.998  1.00 44.30     0.154 A 
HETATM    4  C1    D T 801       3.978   4.144   9.646  1.00 43.93     0.041 A 
HETATM    5  O17   D T 801       5.990   5.087   8.683  1.00 43.09    -0.188 OA
HETATM    6  C2    D T 801       2.593   4.337   9.951  1.00 44.08     0.060 A 
HETATM    7  C3    D T 801       1.858   5.521   9.663  1.00 44.17     0.014 A 
HETATM    8 CL14   D T 801       1.746   3.047  10.719  1.00 45.88    -0.082 Cl
HETATM    9  C4    D T 801       2.566   6.575   9.027  1.00 45.15     0.028 A 
ENDBRANCH   1   2
BRANCH   1  10
HETATM   10  C8    D T 801       4.215   8.108   6.934  1.00 47.49     0.111 A 
HETATM   11  C9    D T 801       4.593   7.582   5.642  1.00 48.15     0.081 A 
HETATM   12  C10   D T 801       4.175   8.235   4.445  1.00 48.95     0.025 A 
HETATM   13 CL16   D T 801       5.574   6.126   5.491  1.00 47.31    -0.080 Cl
HETATM   14  C11   D T 801       3.374   9.429   4.541  1.00 49.51     0.059 A 
HETATM   15  C12   D T 801       2.989   9.970   5.814  1.00 49.76     0.013 A 
HETATM   16 CL15   D T 801       2.859  10.236   3.105  1.00 51.18    -0.082 Cl
HETATM   17  C13   D T 801       3.409   9.313   6.984  1.00 48.54     0.026 A 
ENDBRANCH   1  10
TORSDOF 2
ENDMDL
