MODEL 1
REMARK VINA RESULT:   -10.079      0.000      0.000
REMARK INTER + INTRA:         -14.942
REMARK INTER:                 -14.203
REMARK INTRA:                  -0.739
REMARK UNBOUND:                -0.739
REMARK  7 active torsions:
REMARK  status: ('A' for Active; 'I' for Inactive)
REMARK    1  A    between atoms: C13_1  and  C25_21 
REMARK    2  A    between atoms: C17_3  and  C14_7 
REMARK    3  A    between atoms: C17_3  and  N18_33 
REMARK    4  A    between atoms: C11_5  and  N10_10 
REMARK       I    between atoms: N10_10  and  C08_17 
REMARK    5  A    between atoms: C03_12  and  C29_22 
REMARK    6  A    between atoms: C05_14  and  C08_17 
REMARK    7  A    between atoms: C30_23  and  C31_24 
ROOT
HETATM    1  N10   D T2602       4.605  13.133  -0.228  1.00 94.57    -0.208 NA
HETATM    2  C08   D T2602       5.317  13.368   1.026  1.00 96.06     0.279 C 
HETATM    3  O09   D T2602       5.920  14.368   1.185  1.00 99.47    -0.265 OA
ENDROOT
BRANCH   1   4
HETATM    4  C11   D T2602       4.646  14.151  -1.308  1.00 98.39     0.085 A 
HETATM    5  C12   D T2602       3.815  15.263  -1.242  1.00102.66     0.023 A 
HETATM    6  C13   D T2602       3.819  16.259  -2.240  1.00102.89     0.071 A 
HETATM    7  C14   D T2602       4.705  16.121  -3.349  1.00103.19     0.015 A 
HETATM    8  C15   D T2602       5.534  14.998  -3.392  1.00105.74    -0.001 A 
HETATM    9  C16   D T2602       5.508  14.019  -2.385  1.00102.06     0.019 A 
BRANCH   6  10
HETATM   10  C25   D T2602       2.870  17.455  -2.104  1.00102.82     0.419 C 
HETATM   11  F26   D T2602       2.090  17.269  -1.005  1.00107.06    -0.166 F 
HETATM   12  F27   D T2602       3.581  18.603  -1.944  1.00102.60    -0.166 F 
HETATM   13  F28   D T2602       2.071  17.547  -3.205  1.00103.37    -0.166 F 
ENDBRANCH   6  10
BRANCH   7  14
HETATM   14  C17   D T2602       4.757  17.199  -4.490  1.00100.67     0.277 C 
BRANCH  14  15
HETATM   15  N18   D T2602       5.862  17.056  -5.218  1.00104.04     0.146 N 
HETATM   16  C19   D T2602       6.722  17.976  -4.848  1.00107.77     0.286 C 
HETATM   17  C20   D T2602       7.699  18.452  -5.934  1.00107.78     0.286 C 
HETATM   18  N21   D T2602       7.838  17.502  -6.836  1.00106.92     0.143 N 
HETATM   19  C22   D T2602       6.691  17.363  -7.462  1.00103.68     0.286 C 
HETATM   20  C24   D T2602       8.770  17.847  -7.675  1.00105.81     0.285 C 
HETATM   21  C23   D T2602       5.558  17.036  -6.485  1.00104.89     0.286 C 
ENDBRANCH  14  15
ENDBRANCH   7  14
ENDBRANCH   1   4
BRANCH   2  22
HETATM   22  C05   D T2602       5.290  12.309   2.151  1.00 96.97     0.059 A 
HETATM   23  C04   D T2602       6.489  11.856   2.681  1.00 99.17     0.013 A 
HETATM   24  C03   D T2602       6.485  10.908   3.684  1.00 96.89     0.042 A 
HETATM   25  C02   D T2602       5.283  10.402   4.156  1.00 99.79     0.008 A 
HETATM   26  C07   D T2602       4.087  10.853   3.623  1.00100.07     0.001 A 
HETATM   27  C06   D T2602       4.088  11.807   2.617  1.00100.96     0.005 A 
BRANCH  24  28
HETATM   28  C29   D T2602       7.809  10.409   4.277  1.00 99.16    -0.059 C 
HETATM   29  C30   D T2602       8.848  10.027   4.729  1.00101.30    -0.058 C 
BRANCH  29  30
HETATM   30  C31   D T2602      10.191   9.553   5.309  1.00 99.24     0.061 A 
HETATM   31  C32   D T2602      11.331   9.489   4.534  1.00 99.88     0.015 A 
HETATM   32  C33   D T2602      12.449   9.066   5.113  1.00 95.59     0.059 A 
HETATM   33  C34   D T2602      12.499   8.692   6.484  1.00 97.44     0.185 A 
HETATM   34  C37   D T2602      13.821   8.838   4.743  1.00101.07     0.125 A 
HETATM   35  N35   D T2602      13.874   8.336   6.591  1.00 99.25    -0.129 NA
HETATM   36  N38   D T2602      11.438   8.736   7.279  1.00 99.75    -0.223 NA
HETATM   37  N36   D T2602      14.688   8.412   5.570  1.00101.72    -0.145 NA
HETATM   38  C39   D T2602      10.266   9.172   6.688  1.00 98.74     0.109 A 
ENDBRANCH  29  30
ENDBRANCH  24  28
ENDBRANCH   2  22
TORSDOF 7
ENDMDL
MODEL 2
REMARK VINA RESULT:    -9.525      1.807      2.574
REMARK INTER + INTRA:         -14.162
REMARK INTER:                 -13.902
REMARK INTRA:                  -0.260
REMARK UNBOUND:                -0.739
REMARK  7 active torsions:
REMARK  status: ('A' for Active; 'I' for Inactive)
REMARK    1  A    between atoms: C13_1  and  C25_21 
REMARK    2  A    between atoms: C17_3  and  C14_7 
REMARK    3  A    between atoms: C17_3  and  N18_33 
REMARK    4  A    between atoms: C11_5  and  N10_10 
REMARK       I    between atoms: N10_10  and  C08_17 
REMARK    5  A    between atoms: C03_12  and  C29_22 
REMARK    6  A    between atoms: C05_14  and  C08_17 
REMARK    7  A    between atoms: C30_23  and  C31_24 
ROOT
HETATM    1  N10   D T2602       4.661  15.132  -0.951  1.00 94.57    -0.208 NA
HETATM    2  C08   D T2602       3.868  13.908  -0.846  1.00 96.06     0.279 C 
HETATM    3  O09   D T2602       3.247  13.525  -1.771  1.00 99.47    -0.265 OA
ENDROOT
BRANCH   1   4
HETATM    4  C11   D T2602       4.681  15.897  -2.223  1.00 98.39     0.085 A 
HETATM    5  C12   D T2602       3.759  16.915  -2.433  1.00102.66     0.023 A 
HETATM    6  C13   D T2602       3.740  17.672  -3.623  1.00102.89     0.071 A 
HETATM    7  C14   D T2602       4.698  17.384  -4.638  1.00103.19     0.015 A 
HETATM    8  C15   D T2602       5.617  16.360  -4.404  1.00105.74    -0.001 A 
HETATM    9  C16   D T2602       5.613  15.620  -3.211  1.00102.06     0.019 A 
BRANCH   6  10
HETATM   10  C25   D T2602       2.689  18.776  -3.787  1.00102.82     0.419 C 
HETATM   11  F26   D T2602       1.539  18.216  -4.251  1.00107.06    -0.166 F 
HETATM   12  F27   D T2602       2.434  19.363  -2.587  1.00102.60    -0.166 F 
HETATM   13  F28   D T2602       3.123  19.707  -4.683  1.00103.37    -0.166 F 
ENDBRANCH   6  10
BRANCH   7  14
HETATM   14  C17   D T2602       4.729  18.196  -5.984  1.00100.67     0.277 C 
BRANCH  14  15
HETATM   15  N18   D T2602       5.915  18.775  -6.152  1.00104.04     0.146 N 
HETATM   16  C19   D T2602       5.718  20.042  -6.435  1.00107.77     0.286 C 
HETATM   17  C20   D T2602       6.789  20.704  -7.316  1.00107.78     0.286 C 
HETATM   18  N21   D T2602       7.925  20.052  -7.178  1.00106.92     0.143 N 
HETATM   19  C22   D T2602       7.770  18.852  -7.691  1.00103.68     0.286 C 
HETATM   20  C24   D T2602       8.862  20.694  -7.811  1.00105.81     0.285 C 
HETATM   21  C23   D T2602       6.617  18.101  -7.019  1.00104.89     0.286 C 
ENDBRANCH  14  15
ENDBRANCH   7  14
ENDBRANCH   1   4
BRANCH   2  22
HETATM   22  C05   D T2602       3.832  13.112   0.478  1.00 96.97     0.059 A 
HETATM   23  C04   D T2602       5.025  12.804   1.114  1.00 99.17     0.013 A 
HETATM   24  C03   D T2602       5.013  12.091   2.296  1.00 96.89     0.042 A 
HETATM   25  C02   D T2602       3.808  11.676   2.843  1.00 99.79     0.008 A 
HETATM   26  C07   D T2602       2.618  11.982   2.205  1.00100.07     0.001 A 
HETATM   27  C06   D T2602       2.627  12.700   1.019  1.00100.96     0.005 A 
BRANCH  24  28
HETATM   28  C29   D T2602       6.331  11.752   3.005  1.00 99.16    -0.059 C 
HETATM   29  C30   D T2602       7.362  11.484   3.545  1.00101.30    -0.058 C 
BRANCH  29  30
HETATM   30  C31   D T2602       8.699  11.146   4.226  1.00 99.24     0.061 A 
HETATM   31  C32   D T2602       8.817  10.087   5.103  1.00 99.88     0.015 A 
HETATM   32  C33   D T2602      10.007   9.866   5.650  1.00 95.59     0.059 A 
HETATM   33  C34   D T2602      11.139  10.673   5.354  1.00 97.44     0.185 A 
HETATM   34  C37   D T2602      10.600   8.934   6.573  1.00101.07     0.125 A 
HETATM   35  N35   D T2602      12.117  10.031   6.166  1.00 99.25    -0.129 NA
HETATM   36  N38   D T2602      11.089  11.701   4.517  1.00 99.75    -0.223 NA
HETATM   37  N36   D T2602      11.826   8.992   6.906  1.00101.72    -0.145 NA
HETATM   38  C39   D T2602       9.855  11.944   3.943  1.00 98.74     0.109 A 
ENDBRANCH  29  30
ENDBRANCH  24  28
ENDBRANCH   2  22
TORSDOF 7
ENDMDL
MODEL 3
REMARK VINA RESULT:    -9.360      2.548      3.355
REMARK INTER + INTRA:         -13.929
REMARK INTER:                 -12.995
REMARK INTRA:                  -0.934
REMARK UNBOUND:                -0.739
REMARK  7 active torsions:
REMARK  status: ('A' for Active; 'I' for Inactive)
REMARK    1  A    between atoms: C13_1  and  C25_21 
REMARK    2  A    between atoms: C17_3  and  C14_7 
REMARK    3  A    between atoms: C17_3  and  N18_33 
REMARK    4  A    between atoms: C11_5  and  N10_10 
REMARK       I    between atoms: N10_10  and  C08_17 
REMARK    5  A    between atoms: C03_12  and  C29_22 
REMARK    6  A    between atoms: C05_14  and  C08_17 
REMARK    7  A    between atoms: C30_23  and  C31_24 
ROOT
HETATM    1  N10   D T2602       5.867  14.379  -0.132  1.00 94.57    -0.208 NA
HETATM    2  C08   D T2602       4.917  13.285   0.063  1.00 96.06     0.279 C 
HETATM    3  O09   D T2602       4.148  13.012  -0.788  1.00 99.47    -0.265 OA
ENDROOT
BRANCH   1   4
HETATM    4  C11   D T2602       5.861  15.151  -1.401  1.00 98.39     0.085 A 
HETATM    5  C12   D T2602       6.685  14.762  -2.450  1.00102.66     0.023 A 
HETATM    6  C13   D T2602       6.713  15.460  -3.675  1.00102.89     0.071 A 
HETATM    7  C14   D T2602       5.869  16.597  -3.841  1.00103.19     0.015 A 
HETATM    8  C15   D T2602       5.046  16.966  -2.774  1.00105.74    -0.001 A 
HETATM    9  C16   D T2602       5.039  16.255  -1.564  1.00102.06     0.019 A 
BRANCH   6  10
HETATM   10  C25   D T2602       7.652  14.978  -4.787  1.00102.82     0.419 C 
HETATM   11  F26   D T2602       8.410  13.956  -4.303  1.00107.06    -0.166 F 
HETATM   12  F27   D T2602       6.930  14.522  -5.846  1.00102.60    -0.166 F 
HETATM   13  F28   D T2602       8.474  15.992  -5.180  1.00103.37    -0.166 F 
ENDBRANCH   6  10
BRANCH   7  14
HETATM   14  C17   D T2602       5.853  17.413  -5.184  1.00100.67     0.277 C 
BRANCH  14  15
HETATM   15  N18   D T2602       4.640  17.392  -5.729  1.00104.04     0.146 N 
HETATM   16  C19   D T2602       4.695  16.684  -6.832  1.00107.77     0.286 C 
HETATM   17  C20   D T2602       3.697  17.081  -7.932  1.00107.78     0.286 C 
HETATM   18  N21   D T2602       2.660  17.675  -7.379  1.00106.92     0.143 N 
HETATM   19  C22   D T2602       3.066  18.818  -6.873  1.00103.68     0.286 C 
HETATM   20  C24   D T2602       1.755  17.882  -8.290  1.00105.81     0.285 C 
HETATM   21  C23   D T2602       4.191  18.610  -5.855  1.00104.89     0.286 C 
ENDBRANCH  14  15
ENDBRANCH   7  14
ENDBRANCH   1   4
BRANCH   2  22
HETATM   22  C05   D T2602       4.907  12.484   1.384  1.00 96.97     0.059 A 
HETATM   23  C04   D T2602       6.114  12.154   1.983  1.00 99.17     0.013 A 
HETATM   24  C03   D T2602       6.125  11.437   3.162  1.00 96.89     0.042 A 
HETATM   25  C02   D T2602       4.931  11.040   3.743  1.00 99.79     0.008 A 
HETATM   26  C07   D T2602       3.727  11.367   3.143  1.00100.07     0.001 A 
HETATM   27  C06   D T2602       3.712  12.090   1.960  1.00100.96     0.005 A 
BRANCH  24  28
HETATM   28  C29   D T2602       7.458  11.075   3.830  1.00 99.16    -0.059 C 
HETATM   29  C30   D T2602       8.503  10.793   4.337  1.00101.30    -0.058 C 
BRANCH  29  30
HETATM   30  C31   D T2602       9.855  10.445   4.981  1.00 99.24     0.061 A 
HETATM   31  C32   D T2602       9.944   9.587   6.060  1.00 99.88     0.015 A 
HETATM   32  C33   D T2602      11.150   9.342   6.558  1.00 95.59     0.059 A 
HETATM   33  C34   D T2602      12.328   9.924   6.013  1.00 97.44     0.185 A 
HETATM   34  C37   D T2602      11.727   8.560   7.620  1.00101.07     0.125 A 
HETATM   35  N35   D T2602      13.305   9.352   6.878  1.00 99.25    -0.129 NA
HETATM   36  N38   D T2602      12.307  10.751   4.977  1.00 99.75    -0.223 NA
HETATM   37  N36   D T2602      12.978   8.535   7.846  1.00101.72    -0.145 NA
HETATM   38  C39   D T2602      11.056  11.017   4.450  1.00 98.74     0.109 A 
ENDBRANCH  29  30
ENDBRANCH  24  28
ENDBRANCH   2  22
TORSDOF 7
ENDMDL
MODEL 4
REMARK VINA RESULT:    -9.251      2.690      3.430
REMARK INTER + INTRA:         -13.775
REMARK INTER:                 -12.938
REMARK INTRA:                  -0.837
REMARK UNBOUND:                -0.739
REMARK  7 active torsions:
REMARK  status: ('A' for Active; 'I' for Inactive)
REMARK    1  A    between atoms: C13_1  and  C25_21 
REMARK    2  A    between atoms: C17_3  and  C14_7 
REMARK    3  A    between atoms: C17_3  and  N18_33 
REMARK    4  A    between atoms: C11_5  and  N10_10 
REMARK       I    between atoms: N10_10  and  C08_17 
REMARK    5  A    between atoms: C03_12  and  C29_22 
REMARK    6  A    between atoms: C05_14  and  C08_17 
REMARK    7  A    between atoms: C30_23  and  C31_24 
ROOT
HETATM    1  N10   D T2602       6.056  14.661  -0.615  1.00 94.57    -0.208 NA
HETATM    2  C08   D T2602       5.074  13.590  -0.463  1.00 96.06     0.279 C 
HETATM    3  O09   D T2602       4.374  13.297  -1.365  1.00 99.47    -0.265 OA
ENDROOT
BRANCH   1   4
HETATM    4  C11   D T2602       6.172  15.385  -1.906  1.00 98.39     0.085 A 
HETATM    5  C12   D T2602       7.079  14.950  -2.865  1.00102.66     0.023 A 
HETATM    6  C13   D T2602       7.223  15.602  -4.107  1.00102.89     0.071 A 
HETATM    7  C14   D T2602       6.411  16.740  -4.387  1.00103.19     0.015 A 
HETATM    8  C15   D T2602       5.504  17.157  -3.410  1.00105.74    -0.001 A 
HETATM    9  C16   D T2602       5.382  16.491  -2.181  1.00102.06     0.019 A 
BRANCH   6  10
HETATM   10  C25   D T2602       8.249  15.069  -5.114  1.00102.82     0.419 C 
HETATM   11  F26   D T2602       7.597  14.721  -6.256  1.00107.06    -0.166 F 
HETATM   12  F27   D T2602       9.160  16.035  -5.410  1.00102.60    -0.166 F 
HETATM   13  F28   D T2602       8.876  13.971  -4.608  1.00103.37    -0.166 F 
ENDBRANCH   6  10
BRANCH   7  14
HETATM   14  C17   D T2602       6.524  17.506  -5.754  1.00100.67     0.277 C 
BRANCH  14  15
HETATM   15  N18   D T2602       6.819  18.788  -5.549  1.00104.04     0.146 N 
HETATM   16  C19   D T2602       6.291  19.493  -6.521  1.00107.77     0.286 C 
HETATM   17  C20   D T2602       7.034  20.788  -6.887  1.00107.78     0.286 C 
HETATM   18  N21   D T2602       7.723  21.200  -5.843  1.00106.92     0.143 N 
HETATM   19  C22   D T2602       8.676  20.325  -5.613  1.00103.68     0.286 C 
HETATM   20  C24   D T2602       8.236  22.366  -6.107  1.00105.81     0.285 C 
HETATM   21  C23   D T2602       8.105  18.924  -5.379  1.00104.89     0.286 C 
ENDBRANCH  14  15
ENDBRANCH   7  14
ENDBRANCH   1   4
BRANCH   2  22
HETATM   22  C05   D T2602       4.938  12.838   0.881  1.00 96.97     0.059 A 
HETATM   23  C04   D T2602       6.085  12.450   1.556  1.00 99.17     0.013 A 
HETATM   24  C03   D T2602       5.984  11.775   2.755  1.00 96.89     0.042 A 
HETATM   25  C02   D T2602       4.736  11.479   3.282  1.00 99.79     0.008 A 
HETATM   26  C07   D T2602       3.592  11.866   2.605  1.00100.07     0.001 A 
HETATM   27  C06   D T2602       3.690  12.546   1.401  1.00100.96     0.005 A 
BRANCH  24  28
HETATM   28  C29   D T2602       7.252  11.348   3.508  1.00 99.16    -0.059 C 
HETATM   29  C30   D T2602       8.244  11.028   4.091  1.00101.30    -0.058 C 
BRANCH  29  30
HETATM   30  C31   D T2602       9.522  10.632   4.850  1.00 99.24     0.061 A 
HETATM   31  C32   D T2602       9.516   9.639   5.808  1.00 99.88     0.015 A 
HETATM   32  C33   D T2602      10.662   9.361   6.419  1.00 95.59     0.059 A 
HETATM   33  C34   D T2602      11.870  10.044   6.110  1.00 97.44     0.185 A 
HETATM   34  C37   D T2602      11.138   8.458   7.434  1.00101.07     0.125 A 
HETATM   35  N35   D T2602      12.759   9.386   7.009  1.00 99.25    -0.129 NA
HETATM   36  N38   D T2602      11.940  11.002   5.197  1.00 99.75    -0.223 NA
HETATM   37  N36   D T2602      12.352   8.437   7.812  1.00101.72    -0.145 NA
HETATM   38  C39   D T2602      10.753  11.304   4.555  1.00 98.74     0.109 A 
ENDBRANCH  29  30
ENDBRANCH  24  28
ENDBRANCH   2  22
TORSDOF 7
ENDMDL
MODEL 5
REMARK VINA RESULT:    -9.167      1.990      3.210
REMARK INTER + INTRA:         -13.657
REMARK INTER:                 -13.692
REMARK INTRA:                   0.034
REMARK UNBOUND:                -0.739
REMARK  7 active torsions:
REMARK  status: ('A' for Active; 'I' for Inactive)
REMARK    1  A    between atoms: C13_1  and  C25_21 
REMARK    2  A    between atoms: C17_3  and  C14_7 
REMARK    3  A    between atoms: C17_3  and  N18_33 
REMARK    4  A    between atoms: C11_5  and  N10_10 
REMARK       I    between atoms: N10_10  and  C08_17 
REMARK    5  A    between atoms: C03_12  and  C29_22 
REMARK    6  A    between atoms: C05_14  and  C08_17 
REMARK    7  A    between atoms: C30_23  and  C31_24 
ROOT
HETATM    1  N10   D T2602       5.660  14.884  -2.077  1.00 94.57    -0.208 NA
HETATM    2  C08   D T2602       4.770  13.742  -1.876  1.00 96.06     0.279 C 
HETATM    3  O09   D T2602       4.222  13.251  -2.797  1.00 99.47    -0.265 OA
ENDROOT
BRANCH   1   4
HETATM    4  C11   D T2602       5.872  15.430  -3.441  1.00 98.39     0.085 A 
HETATM    5  C12   D T2602       5.102  16.498  -3.886  1.00102.66     0.023 A 
HETATM    6  C13   D T2602       5.269  17.054  -5.172  1.00102.89     0.071 A 
HETATM    7  C14   D T2602       6.258  16.503  -6.038  1.00103.19     0.015 A 
HETATM    8  C15   D T2602       7.022  15.433  -5.568  1.00105.74    -0.001 A 
HETATM    9  C16   D T2602       6.835  14.897  -4.284  1.00102.06     0.019 A 
BRANCH   6  10
HETATM   10  C25   D T2602       4.379  18.227  -5.597  1.00102.82     0.419 C 
HETATM   11  F26   D T2602       3.541  18.533  -4.570  1.00107.06    -0.166 F 
HETATM   12  F27   D T2602       5.143  19.318  -5.876  1.00102.60    -0.166 F 
HETATM   13  F28   D T2602       3.637  17.882  -6.688  1.00103.37    -0.166 F 
ENDBRANCH   6  10
BRANCH   7  14
HETATM   14  C17   D T2602       6.492  17.082  -7.480  1.00100.67     0.277 C 
BRANCH  14  15
HETATM   15  N18   D T2602       7.629  17.773  -7.527  1.00104.04     0.146 N 
HETATM   16  C19   D T2602       8.465  17.137  -8.314  1.00107.77     0.286 C 
HETATM   17  C20   D T2602       9.956  17.316  -7.987  1.00107.78     0.286 C 
HETATM   18  N21   D T2602      10.124  18.453  -7.344  1.00106.92     0.143 N 
HETATM   19  C22   D T2602       9.539  18.349  -6.172  1.00103.68     0.286 C 
HETATM   20  C24   D T2602      11.397  18.672  -7.194  1.00105.81     0.285 C 
HETATM   21  C23   D T2602       8.052  18.010  -6.318  1.00104.89     0.286 C 
ENDBRANCH  14  15
ENDBRANCH   7  14
ENDBRANCH   1   4
BRANCH   2  22
HETATM   22  C05   D T2602       4.534  13.175  -0.458  1.00 96.97     0.059 A 
HETATM   23  C04   D T2602       5.627  12.820   0.318  1.00 99.17     0.013 A 
HETATM   24  C03   D T2602       5.435  12.308   1.586  1.00 96.89     0.042 A 
HETATM   25  C02   D T2602       4.151  12.143   2.080  1.00 99.79     0.008 A 
HETATM   26  C07   D T2602       3.061  12.496   1.303  1.00100.07     0.001 A 
HETATM   27  C06   D T2602       3.249  13.012   0.030  1.00100.96     0.005 A 
BRANCH  24  28
HETATM   28  C29   D T2602       6.643  11.919   2.449  1.00 99.16    -0.059 C 
HETATM   29  C30   D T2602       7.586  11.629   3.123  1.00101.30    -0.058 C 
BRANCH  29  30
HETATM   30  C31   D T2602       8.793  11.268   4.005  1.00 99.24     0.061 A 
HETATM   31  C32   D T2602       8.797  10.140   4.800  1.00 99.88     0.015 A 
HETATM   32  C33   D T2602       9.878   9.903   5.533  1.00 95.59     0.059 A 
HETATM   33  C34   D T2602      11.011  10.763   5.513  1.00 97.44     0.185 A 
HETATM   34  C37   D T2602      10.336   8.911   6.470  1.00101.07     0.125 A 
HETATM   35  N35   D T2602      11.855  10.077   6.434  1.00 99.25    -0.129 NA
HETATM   36  N38   D T2602      11.068  11.857   4.767  1.00 99.75    -0.223 NA
HETATM   37  N36   D T2602      11.479   8.970   7.022  1.00101.72    -0.145 NA
HETATM   38  C39   D T2602       9.947  12.118   4.001  1.00 98.74     0.109 A 
ENDBRANCH  29  30
ENDBRANCH  24  28
ENDBRANCH   2  22
TORSDOF 7
ENDMDL
MODEL 6
REMARK VINA RESULT:    -9.124      4.366     12.774
REMARK INTER + INTRA:         -13.596
REMARK INTER:                 -12.740
REMARK INTRA:                  -0.856
REMARK UNBOUND:                -0.739
REMARK  7 active torsions:
REMARK  status: ('A' for Active; 'I' for Inactive)
REMARK    1  A    between atoms: C13_1  and  C25_21 
REMARK    2  A    between atoms: C17_3  and  C14_7 
REMARK    3  A    between atoms: C17_3  and  N18_33 
REMARK    4  A    between atoms: C11_5  and  N10_10 
REMARK       I    between atoms: N10_10  and  C08_17 
REMARK    5  A    between atoms: C03_12  and  C29_22 
REMARK    6  A    between atoms: C05_14  and  C08_17 
REMARK    7  A    between atoms: C30_23  and  C31_24 
ROOT
HETATM    1  N10   D T2602       8.431  11.009   4.441  1.00 94.57    -0.208 NA
HETATM    2  C08   D T2602       7.723  10.601   3.230  1.00 96.06     0.279 C 
HETATM    3  O09   D T2602       8.224   9.842   2.481  1.00 99.47    -0.265 OA
ENDROOT
BRANCH   1   4
HETATM    4  C11   D T2602       9.785  10.472   4.728  1.00 98.39     0.085 A 
HETATM    5  C12   D T2602      10.910  11.159   4.287  1.00102.66     0.023 A 
HETATM    6  C13   D T2602      12.217  10.691   4.537  1.00102.89     0.071 A 
HETATM    7  C14   D T2602      12.387   9.478   5.266  1.00103.19     0.015 A 
HETATM    8  C15   D T2602      11.243   8.807   5.702  1.00105.74    -0.001 A 
HETATM    9  C16   D T2602       9.953   9.293   5.438  1.00102.06     0.019 A 
BRANCH   6  10
HETATM   10  C25   D T2602      13.410  11.499   4.015  1.00102.82     0.419 C 
HETATM   11  F26   D T2602      12.941  12.533   3.265  1.00107.06    -0.166 F 
HETATM   12  F27   D T2602      14.125  12.005   5.056  1.00102.60    -0.166 F 
HETATM   13  F28   D T2602      14.206  10.712   3.238  1.00103.37    -0.166 F 
ENDBRANCH   6  10
BRANCH   7  14
HETATM   14  C17   D T2602      13.818   8.908   5.578  1.00100.67     0.277 C 
BRANCH  14  15
HETATM   15  N18   D T2602      13.882   7.614   5.274  1.00104.04     0.146 N 
HETATM   16  C19   D T2602      14.861   7.077   5.962  1.00107.77     0.286 C 
HETATM   17  C20   D T2602      15.556   5.872   5.308  1.00107.78     0.286 C 
HETATM   18  N21   D T2602      14.721   5.298   4.466  1.00106.92     0.143 N 
HETATM   19  C22   D T2602      14.503   6.132   3.475  1.00103.68     0.286 C 
HETATM   20  C24   D T2602      15.257   4.199   4.021  1.00105.81     0.285 C 
HETATM   21  C23   D T2602      13.947   7.467   3.980  1.00104.89     0.286 C 
ENDBRANCH  14  15
ENDBRANCH   7  14
ENDBRANCH   1   4
BRANCH   2  22
HETATM   22  C05   D T2602       6.318  11.164   2.918  1.00 96.97     0.059 A 
HETATM   23  C04   D T2602       6.170  12.075   1.883  1.00 99.17     0.013 A 
HETATM   24  C03   D T2602       4.924  12.591   1.591  1.00 96.89     0.042 A 
HETATM   25  C02   D T2602       3.822  12.206   2.338  1.00 99.79     0.008 A 
HETATM   26  C07   D T2602       3.972  11.299   3.374  1.00100.07     0.001 A 
HETATM   27  C06   D T2602       5.222  10.776   3.668  1.00100.96     0.005 A 
BRANCH  24  28
HETATM   28  C29   D T2602       4.756  13.595   0.443  1.00 99.16    -0.059 C 
HETATM   29  C30   D T2602       4.625  14.388  -0.442  1.00101.30    -0.058 C 
BRANCH  29  30
HETATM   30  C31   D T2602       4.472  15.417  -1.574  1.00 99.24     0.061 A 
HETATM   31  C32   D T2602       3.385  16.266  -1.638  1.00 99.88     0.015 A 
HETATM   32  C33   D T2602       3.328  17.123  -2.650  1.00 95.59     0.059 A 
HETATM   33  C34   D T2602       4.342  17.191  -3.644  1.00 97.44     0.185 A 
HETATM   34  C37   D T2602       2.444  18.155  -3.125  1.00101.07     0.125 A 
HETATM   35  N35   D T2602       3.817  18.235  -4.459  1.00 99.25    -0.129 NA
HETATM   36  N38   D T2602       5.411  16.406  -3.634  1.00 99.75    -0.223 NA
HETATM   37  N36   D T2602       2.687  18.829  -4.176  1.00101.72    -0.145 NA
HETATM   38  C39   D T2602       5.481  15.505  -2.586  1.00 98.74     0.109 A 
ENDBRANCH  29  30
ENDBRANCH  24  28
ENDBRANCH   2  22
TORSDOF 7
ENDMDL
MODEL 7
REMARK VINA RESULT:    -9.065      4.007     12.162
REMARK INTER + INTRA:         -13.513
REMARK INTER:                 -12.762
REMARK INTRA:                  -0.751
REMARK UNBOUND:                -0.739
REMARK  7 active torsions:
REMARK  status: ('A' for Active; 'I' for Inactive)
REMARK    1  A    between atoms: C13_1  and  C25_21 
REMARK    2  A    between atoms: C17_3  and  C14_7 
REMARK    3  A    between atoms: C17_3  and  N18_33 
REMARK    4  A    between atoms: C11_5  and  N10_10 
REMARK       I    between atoms: N10_10  and  C08_17 
REMARK    5  A    between atoms: C03_12  and  C29_22 
REMARK    6  A    between atoms: C05_14  and  C08_17 
REMARK    7  A    between atoms: C30_23  and  C31_24 
ROOT
HETATM    1  N10   D T2602       7.495  11.587   2.833  1.00 94.57    -0.208 NA
HETATM    2  C08   D T2602       6.135  11.290   3.279  1.00 96.06     0.279 C 
HETATM    3  O09   D T2602       5.959  10.617   4.231  1.00 99.47    -0.265 OA
ENDROOT
BRANCH   1   4
HETATM    4  C11   D T2602       8.657  11.037   3.576  1.00 98.39     0.085 A 
HETATM    5  C12   D T2602       9.546  11.900   4.206  1.00102.66     0.023 A 
HETATM    6  C13   D T2602      10.662  11.426   4.927  1.00102.89     0.071 A 
HETATM    7  C14   D T2602      10.882  10.021   5.012  1.00103.19     0.015 A 
HETATM    8  C15   D T2602       9.973   9.173   4.375  1.00105.74    -0.001 A 
HETATM    9  C16   D T2602       8.871   9.670   3.662  1.00102.06     0.019 A 
BRANCH   6  10
HETATM   10  C25   D T2602      11.604  12.437   5.590  1.00102.82     0.419 C 
HETATM   11  F26   D T2602      11.089  13.686   5.426  1.00107.06    -0.166 F 
HETATM   12  F27   D T2602      11.705  12.180   6.922  1.00102.60    -0.166 F 
HETATM   13  F28   D T2602      12.835  12.385   5.007  1.00103.37    -0.166 F 
ENDBRANCH   6  10
BRANCH   7  14
HETATM   14  C17   D T2602      12.106   9.433   5.803  1.00100.67     0.277 C 
BRANCH  14  15
HETATM   15  N18   D T2602      12.869   8.695   5.001  1.00104.04     0.146 N 
HETATM   16  C19   D T2602      13.210   7.603   5.646  1.00107.77     0.286 C 
HETATM   17  C20   D T2602      14.562   6.989   5.252  1.00107.78     0.286 C 
HETATM   18  N21   D T2602      14.858   7.350   4.020  1.00106.92     0.143 N 
HETATM   19  C22   D T2602      15.070   8.647   4.016  1.00103.68     0.286 C 
HETATM   20  C24   D T2602      15.927   6.717   3.638  1.00105.81     0.285 C 
HETATM   21  C23   D T2602      13.853   9.415   4.540  1.00104.89     0.286 C 
ENDBRANCH  14  15
ENDBRANCH   7  14
ENDBRANCH   1   4
BRANCH   2  22
HETATM   22  C05   D T2602       4.919  11.848   2.505  1.00 96.97     0.059 A 
HETATM   23  C04   D T2602       5.135  12.655   1.399  1.00 99.17     0.013 A 
HETATM   24  C03   D T2602       4.062  13.165   0.697  1.00 96.89     0.042 A 
HETATM   25  C02   D T2602       2.768  12.876   1.102  1.00 99.79     0.008 A 
HETATM   26  C07   D T2602       2.554  12.073   2.209  1.00100.07     0.001 A 
HETATM   27  C06   D T2602       3.630  11.557   2.915  1.00100.96     0.005 A 
BRANCH  24  28
HETATM   28  C29   D T2602       4.298  14.054  -0.531  1.00 99.16    -0.059 C 
HETATM   29  C30   D T2602       4.483  14.736  -1.495  1.00101.30    -0.058 C 
BRANCH  29  30
HETATM   30  C31   D T2602       4.710  15.601  -2.746  1.00 99.24     0.061 A 
HETATM   31  C32   D T2602       5.399  15.123  -3.842  1.00 99.88     0.015 A 
HETATM   32  C33   D T2602       5.553  15.937  -4.880  1.00 95.59     0.059 A 
HETATM   33  C34   D T2602       5.029  17.258  -4.891  1.00 97.44     0.185 A 
HETATM   34  C37   D T2602       6.163  15.899  -6.183  1.00101.07     0.125 A 
HETATM   35  N35   D T2602       5.453  17.679  -6.184  1.00 99.25    -0.129 NA
HETATM   36  N38   D T2602       4.356  17.772  -3.871  1.00 99.75    -0.223 NA
HETATM   37  N36   D T2602       6.131  16.891  -6.979  1.00101.72    -0.145 NA
HETATM   38  C39   D T2602       4.190  16.936  -2.782  1.00 98.74     0.109 A 
ENDBRANCH  29  30
ENDBRANCH  24  28
ENDBRANCH   2  22
TORSDOF 7
ENDMDL
MODEL 8
REMARK VINA RESULT:    -8.944      1.843      2.265
REMARK INTER + INTRA:         -13.343
REMARK INTER:                 -12.619
REMARK INTRA:                  -0.723
REMARK UNBOUND:                -0.739
REMARK  7 active torsions:
REMARK  status: ('A' for Active; 'I' for Inactive)
REMARK    1  A    between atoms: C13_1  and  C25_21 
REMARK    2  A    between atoms: C17_3  and  C14_7 
REMARK    3  A    between atoms: C17_3  and  N18_33 
REMARK    4  A    between atoms: C11_5  and  N10_10 
REMARK       I    between atoms: N10_10  and  C08_17 
REMARK    5  A    between atoms: C03_12  and  C29_22 
REMARK    6  A    between atoms: C05_14  and  C08_17 
REMARK    7  A    between atoms: C30_23  and  C31_24 
ROOT
HETATM    1  N10   D T2602       7.073  13.611   0.026  1.00 94.57    -0.208 NA
HETATM    2  C08   D T2602       5.872  13.545   0.856  1.00 96.06     0.279 C 
HETATM    3  O09   D T2602       4.979  14.288   0.662  1.00 99.47    -0.265 OA
ENDROOT
BRANCH   1   4
HETATM    4  C11   D T2602       7.171  14.618  -1.060  1.00 98.39     0.085 A 
HETATM    5  C12   D T2602       6.236  14.621  -2.088  1.00102.66     0.023 A 
HETATM    6  C13   D T2602       6.285  15.559  -3.139  1.00102.89     0.071 A 
HETATM    7  C14   D T2602       7.325  16.535  -3.145  1.00103.19     0.015 A 
HETATM    8  C15   D T2602       8.250  16.515  -2.100  1.00105.74    -0.001 A 
HETATM    9  C16   D T2602       8.180  15.569  -1.066  1.00102.06     0.019 A 
BRANCH   6  10
HETATM   10  C25   D T2602       5.223  15.498  -4.243  1.00102.82     0.419 C 
HETATM   11  F26   D T2602       4.364  14.480  -3.964  1.00107.06    -0.166 F 
HETATM   12  F27   D T2602       4.520  16.662  -4.283  1.00102.60    -0.166 F 
HETATM   13  F28   D T2602       5.813  15.264  -5.449  1.00103.37    -0.166 F 
ENDBRANCH   6  10
BRANCH   7  14
HETATM   14  C17   D T2602       7.429  17.608  -4.288  1.00100.67     0.277 C 
BRANCH  14  15
HETATM   15  N18   D T2602       8.648  17.603  -4.823  1.00104.04     0.146 N 
HETATM   16  C19   D T2602       8.974  18.840  -5.117  1.00107.77     0.286 C 
HETATM   17  C20   D T2602       9.932  19.014  -6.306  1.00107.78     0.286 C 
HETATM   18  N21   D T2602      10.638  17.912  -6.457  1.00106.92     0.143 N 
HETATM   19  C22   D T2602       9.821  16.952  -6.828  1.00103.68     0.286 C 
HETATM   20  C24   D T2602      11.544  18.110  -7.368  1.00105.81     0.285 C 
HETATM   21  C23   D T2602       8.694  16.752  -5.810  1.00104.89     0.286 C 
ENDBRANCH  14  15
ENDBRANCH   7  14
ENDBRANCH   1   4
BRANCH   2  22
HETATM   22  C05   D T2602       5.765  12.507   1.997  1.00 96.97     0.059 A 
HETATM   23  C04   D T2602       6.927  11.984   2.544  1.00 99.17     0.013 A 
HETATM   24  C03   D T2602       6.852  11.054   3.561  1.00 96.89     0.042 A 
HETATM   25  C02   D T2602       5.616  10.638   4.030  1.00 99.79     0.008 A 
HETATM   26  C07   D T2602       4.457  11.159   3.481  1.00100.07     0.001 A 
HETATM   27  C06   D T2602       4.529  12.095   2.460  1.00100.96     0.005 A 
BRANCH  24  28
HETATM   28  C29   D T2602       8.136  10.476   4.173  1.00 99.16    -0.059 C 
HETATM   29  C30   D T2602       9.141  10.039   4.648  1.00101.30    -0.058 C 
BRANCH  29  30
HETATM   30  C31   D T2602      10.436   9.492   5.271  1.00 99.24     0.061 A 
HETATM   31  C32   D T2602      11.562   9.254   4.509  1.00 99.88     0.015 A 
HETATM   32  C33   D T2602      12.637   8.778   5.125  1.00 95.59     0.059 A 
HETATM   33  C34   D T2602      12.657   8.519   6.523  1.00 97.44     0.185 A 
HETATM   34  C37   D T2602      13.980   8.391   4.781  1.00101.07     0.125 A 
HETATM   35  N35   D T2602      13.993   8.045   6.665  1.00 99.25    -0.129 NA
HETATM   36  N38   D T2602      11.610   8.731   7.308  1.00 99.75    -0.223 NA
HETATM   37  N36   D T2602      14.807   7.957   5.644  1.00101.72    -0.145 NA
HETATM   38  C39   D T2602      10.481   9.224   6.678  1.00 98.74     0.109 A 
ENDBRANCH  29  30
ENDBRANCH  24  28
ENDBRANCH   2  22
TORSDOF 7
ENDMDL
MODEL 9
REMARK VINA RESULT:    -8.569      3.383      4.973
REMARK INTER + INTRA:         -12.815
REMARK INTER:                 -11.984
REMARK INTRA:                  -0.830
REMARK UNBOUND:                -0.739
REMARK  7 active torsions:
REMARK  status: ('A' for Active; 'I' for Inactive)
REMARK    1  A    between atoms: C13_1  and  C25_21 
REMARK    2  A    between atoms: C17_3  and  C14_7 
REMARK    3  A    between atoms: C17_3  and  N18_33 
REMARK    4  A    between atoms: C11_5  and  N10_10 
REMARK       I    between atoms: N10_10  and  C08_17 
REMARK    5  A    between atoms: C03_12  and  C29_22 
REMARK    6  A    between atoms: C05_14  and  C08_17 
REMARK    7  A    between atoms: C30_23  and  C31_24 
ROOT
HETATM    1  N10   D T2602       5.729  14.938  -3.896  1.00 94.57    -0.208 NA
HETATM    2  C08   D T2602       5.810  15.250  -2.470  1.00 96.06     0.279 C 
HETATM    3  O09   D T2602       6.279  16.271  -2.115  1.00 99.47    -0.265 OA
ENDROOT
BRANCH   1   4
HETATM    4  C11   D T2602       6.241  15.905  -4.899  1.00 98.39     0.085 A 
HETATM    5  C12   D T2602       7.448  15.661  -5.542  1.00102.66     0.023 A 
HETATM    6  C13   D T2602       7.974  16.548  -6.504  1.00102.89     0.071 A 
HETATM    7  C14   D T2602       7.243  17.728  -6.828  1.00103.19     0.015 A 
HETATM    8  C15   D T2602       6.030  17.950  -6.172  1.00105.74    -0.001 A 
HETATM    9  C16   D T2602       5.529  17.052  -5.216  1.00102.06     0.019 A 
BRANCH   6  10
HETATM   10  C25   D T2602       9.316  16.217  -7.168  1.00102.82     0.419 C 
HETATM   11  F26   D T2602       9.900  15.196  -6.484  1.00107.06    -0.166 F 
HETATM   12  F27   D T2602       9.118  15.822  -8.455  1.00102.60    -0.166 F 
HETATM   13  F28   D T2602      10.138  17.303  -7.131  1.00103.37    -0.166 F 
ENDBRANCH   6  10
BRANCH   7  14
HETATM   14  C17   D T2602       7.776  18.751  -7.894  1.00100.67     0.277 C 
BRANCH  14  15
HETATM   15  N18   D T2602       7.771  19.986  -7.399  1.00104.04     0.146 N 
HETATM   16  C19   D T2602       7.293  20.796  -8.314  1.00107.77     0.286 C 
HETATM   17  C20   D T2602       7.818  22.239  -8.270  1.00107.78     0.286 C 
HETATM   18  N21   D T2602       8.218  22.516  -7.046  1.00106.92     0.143 N 
HETATM   19  C22   D T2602       9.270  21.773  -6.784  1.00103.68     0.286 C 
HETATM   20  C24   D T2602       8.529  23.777  -6.976  1.00105.81     0.285 C 
HETATM   21  C23   D T2602       8.955  20.283  -6.938  1.00104.89     0.286 C 
ENDBRANCH  14  15
ENDBRANCH   7  14
ENDBRANCH   1   4
BRANCH   2  22
HETATM   22  C05   D T2602       5.290  14.243  -1.419  1.00 96.97     0.059 A 
HETATM   23  C04   D T2602       6.173  13.731  -0.480  1.00 99.17     0.013 A 
HETATM   24  C03   D T2602       5.728  12.829   0.465  1.00 96.89     0.042 A 
HETATM   25  C02   D T2602       4.401  12.430   0.471  1.00 99.79     0.008 A 
HETATM   26  C07   D T2602       3.521  12.940  -0.469  1.00100.07     0.001 A 
HETATM   27  C06   D T2602       3.964  13.848  -1.418  1.00100.96     0.005 A 
BRANCH  24  28
HETATM   28  C29   D T2602       6.701  12.264   1.508  1.00 99.16    -0.059 C 
HETATM   29  C30   D T2602       7.466  11.836   2.320  1.00101.30    -0.058 C 
BRANCH  29  30
HETATM   30  C31   D T2602       8.450  11.301   3.375  1.00 99.24     0.061 A 
HETATM   31  C32   D T2602       9.494  12.071   3.846  1.00 99.88     0.015 A 
HETATM   32  C33   D T2602      10.299  11.532   4.755  1.00 95.59     0.059 A 
HETATM   33  C34   D T2602      10.110  10.211   5.246  1.00 97.44     0.185 A 
HETATM   34  C37   D T2602      11.463  11.915   5.510  1.00101.07     0.125 A 
HETATM   35  N35   D T2602      11.198  10.133   6.163  1.00 99.25    -0.129 NA
HETATM   36  N38   D T2602       9.124   9.426   4.835  1.00 99.75    -0.223 NA
HETATM   37  N36   D T2602      12.023  11.133   6.342  1.00101.72    -0.145 NA
HETATM   38  C39   D T2602       8.280   9.974   3.887  1.00 98.74     0.109 A 
ENDBRANCH  29  30
ENDBRANCH  24  28
ENDBRANCH   2  22
TORSDOF 7
ENDMDL
