MODEL 1
REMARK VINA RESULT:      -8.0      0.000      0.000
REMARK  2 active torsions:
REMARK  status: ('A' for Active; 'I' for Inactive)
REMARK    1  A    between atoms: C5_4  and  O7_13 
REMARK    2  A    between atoms: C8_10  and  O7_13 
ROOT
HETATM    1  O7    D T 502      23.437   6.856  17.278  0.75  8.16    -0.304 OA
ENDROOT
BRANCH   1   2
HETATM    2  C5    D T 502      23.352   8.299  17.323  0.75 10.64     0.125 A 
HETATM    3  C6    D T 502      22.124   8.889  16.967  0.75 18.74     0.154 A 
HETATM    4  C1    D T 502      22.011  10.270  16.996  0.75 21.18     0.041 A 
HETATM    5  O17   D T 502      21.078   8.121  16.605  0.75  5.03    -0.188 OA
HETATM    6  C2    D T 502      23.094  11.005  17.378  0.75  4.79     0.060 A 
HETATM    7  C3    D T 502      24.307  10.447  17.721  0.75 38.32     0.014 A 
HETATM    8 CL14   D T 502      22.956  12.725  17.432  0.75 13.77    -0.082 Cl
HETATM    9  C4    D T 502      24.399   9.045  17.684  0.75 41.22     0.028 A 
ENDBRANCH   1   2
BRANCH   1  10
HETATM   10  C8    D T 502      24.162   6.202  16.265  0.75 12.01     0.111 A 
HETATM   11  C9    D T 502      24.706   4.977  16.579  0.75  7.59     0.081 A 
HETATM   12  C10   D T 502      25.441   4.247  15.653  0.75  9.21     0.025 A 
HETATM   13 CL16   D T 502      24.474   4.310  18.171  0.75 22.03    -0.080 Cl
HETATM   14  C11   D T 502      25.626   4.787  14.375  0.75 25.58     0.059 A 
HETATM   15  C12   D T 502      25.082   6.027  14.042  0.75 18.79     0.013 A 
HETATM   16 CL15   D T 502      26.539   3.908  13.197  0.75 35.46    -0.082 Cl
HETATM   17  C13   D T 502      24.346   6.727  15.010  0.75  7.86     0.026 A 
ENDBRANCH   1  10
TORSDOF 2
ENDMDL
MODEL 2
REMARK VINA RESULT:      -8.0      1.398      1.953
REMARK  2 active torsions:
REMARK  status: ('A' for Active; 'I' for Inactive)
REMARK    1  A    between atoms: C5_4  and  O7_13 
REMARK    2  A    between atoms: C8_10  and  O7_13 
ROOT
HETATM    1  O7    D T 502      23.835   6.993  17.450  0.75  8.16    -0.304 OA
ENDROOT
BRANCH   1   2
HETATM    2  C5    D T 502      22.821   8.015  17.306  0.75 10.64     0.125 A 
HETATM    3  C6    D T 502      23.009   9.220  18.009  0.75 18.74     0.154 A 
HETATM    4  C1    D T 502      22.054  10.217  17.896  0.75 21.18     0.041 A 
HETATM    5  O17   D T 502      24.101   9.398  18.778  0.75  5.03    -0.188 OA
HETATM    6  C2    D T 502      20.971   9.995  17.099  0.75  4.79     0.060 A 
HETATM    7  C3    D T 502      20.764   8.819  16.410  0.75 38.32     0.014 A 
HETATM    8 CL14   D T 502      19.785  11.239  16.940  0.75 13.77    -0.082 Cl
HETATM    9  C4    D T 502      21.745   7.821  16.540  0.75 41.22     0.028 A 
ENDBRANCH   1   2
BRANCH   1  10
HETATM   10  C8    D T 502      24.396   6.362  16.325  0.75 12.01     0.111 A 
HETATM   11  C9    D T 502      24.652   5.013  16.429  0.75  7.59     0.081 A 
HETATM   12  C10   D T 502      25.206   4.293  15.378  0.75  9.21     0.025 A 
HETATM   13 CL16   D T 502      24.278   4.173  17.908  0.75 22.03    -0.080 Cl
HETATM   14  C11   D T 502      25.507   4.971  14.192  0.75 25.58     0.059 A 
HETATM   15  C12   D T 502      25.254   6.338  14.070  0.75 18.79     0.013 A 
HETATM   16 CL15   D T 502      26.200   4.108  12.862  0.75 35.46    -0.082 Cl
HETATM   17  C13   D T 502      24.692   7.023  15.159  0.75  7.86     0.026 A 
ENDBRANCH   1  10
TORSDOF 2
ENDMDL
MODEL 3
REMARK VINA RESULT:      -7.9      1.846      6.063
REMARK  2 active torsions:
REMARK  status: ('A' for Active; 'I' for Inactive)
REMARK    1  A    between atoms: C5_4  and  O7_13 
REMARK    2  A    between atoms: C8_10  and  O7_13 
ROOT
HETATM    1  O7    D T 502      23.738   7.159  17.370  0.75  8.16    -0.304 OA
ENDROOT
BRANCH   1   2
HETATM    2  C5    D T 502      24.347   6.417  16.287  0.75 10.64     0.125 A 
HETATM    3  C6    D T 502      24.555   5.038  16.482  0.75 18.74     0.154 A 
HETATM    4  C1    D T 502      25.140   4.299  15.466  0.75 21.18     0.041 A 
HETATM    5  O17   D T 502      24.188   4.449  17.637  0.75  5.03    -0.188 OA
HETATM    6  C2    D T 502      25.485   4.936  14.312  0.75  4.79     0.060 A 
HETATM    7  C3    D T 502      25.299   6.287  14.106  0.75 38.32     0.014 A 
HETATM    8 CL14   D T 502      26.200   4.020  13.036  0.75 13.77    -0.082 Cl
HETATM    9  C4    D T 502      24.704   7.017  15.150  0.75 41.22     0.028 A 
ENDBRANCH   1   2
BRANCH   1  10
HETATM   10  C8    D T 502      22.773   8.151  17.118  0.75 12.01     0.111 A 
HETATM   11  C9    D T 502      23.124   9.450  17.410  0.75  7.59     0.081 A 
HETATM   12  C10   D T 502      22.246  10.506  17.201  0.75  9.21     0.025 A 
HETATM   13 CL16   D T 502      24.703   9.795  18.058  0.75 22.03    -0.080 Cl
HETATM   14  C11   D T 502      20.978  10.225  16.680  0.75 25.58     0.059 A 
HETATM   15  C12   D T 502      20.608   8.914  16.379  0.75 18.79     0.013 A 
HETATM   16 CL15   D T 502      19.857  11.514  16.409  0.75 35.46    -0.082 Cl
HETATM   17  C13   D T 502      21.529   7.880  16.607  0.75  7.86     0.026 A 
ENDBRANCH   1  10
TORSDOF 2
ENDMDL
MODEL 4
REMARK VINA RESULT:      -7.8     10.590     12.904
REMARK  2 active torsions:
REMARK  status: ('A' for Active; 'I' for Inactive)
REMARK    1  A    between atoms: C5_4  and  O7_13 
REMARK    2  A    between atoms: C8_10  and  O7_13 
ROOT
HETATM    1  O7    D T 502      13.767   9.696  10.813  0.75  8.16    -0.304 OA
ENDROOT
BRANCH   1   2
HETATM    2  C5    D T 502      14.249   9.604  12.174  0.75 10.64     0.125 A 
HETATM    3  C6    D T 502      14.167   8.349  12.808  0.75 18.74     0.154 A 
HETATM    4  C1    D T 502      14.616   8.229  14.114  0.75 21.18     0.041 A 
HETATM    5  O17   D T 502      13.662   7.285  12.154  0.75  5.03    -0.188 OA
HETATM    6  C2    D T 502      15.127   9.331  14.732  0.75  4.79     0.060 A 
HETATM    7  C3    D T 502      15.207  10.569  14.132  0.75 38.32     0.014 A 
HETATM    8 CL14   D T 502      15.703   9.185  16.353  0.75 13.77    -0.082 Cl
HETATM    9  C4    D T 502      14.746  10.669  12.807  0.75 41.22     0.028 A 
ENDBRANCH   1   2
BRANCH   1  10
HETATM   10  C8    D T 502      13.163  10.872  10.334  0.75 12.01     0.111 A 
HETATM   11  C9    D T 502      11.920  11.184  10.838  0.75  7.59     0.081 A 
HETATM   12  C10   D T 502      11.233  12.321  10.433  0.75  9.21     0.025 A 
HETATM   13 CL16   D T 502      11.176  10.136  12.014  0.75 22.03    -0.080 Cl
HETATM   14  C11   D T 502      11.833  13.160   9.487  0.75 25.58     0.059 A 
HETATM   15  C12   D T 502      13.092  12.858   8.967  0.75 18.79     0.013 A 
HETATM   16 CL15   D T 502      11.007  14.584   8.956  0.75 35.46    -0.082 Cl
HETATM   17  C13   D T 502      13.747  11.698   9.407  0.75  7.86     0.026 A 
ENDBRANCH   1  10
TORSDOF 2
ENDMDL
MODEL 5
REMARK VINA RESULT:      -7.8      1.485      6.081
REMARK  2 active torsions:
REMARK  status: ('A' for Active; 'I' for Inactive)
REMARK    1  A    between atoms: C5_4  and  O7_13 
REMARK    2  A    between atoms: C8_10  and  O7_13 
ROOT
HETATM    1  O7    D T 502      23.388   7.075  17.286  0.75  8.16    -0.304 OA
ENDROOT
BRANCH   1   2
HETATM    2  C5    D T 502      24.166   6.403  16.268  0.75 10.64     0.125 A 
HETATM    3  C6    D T 502      24.554   5.073  16.520  0.75 18.74     0.154 A 
HETATM    4  C1    D T 502      25.303   4.402  15.566  0.75 21.18     0.041 A 
HETATM    5  O17   D T 502      24.200   4.464  17.668  0.75  5.03    -0.188 OA
HETATM    6  C2    D T 502      25.630   5.055  14.415  0.75  4.79     0.060 A 
HETATM    7  C3    D T 502      25.268   6.360  14.154  0.75 38.32     0.014 A 
HETATM    8 CL14   D T 502      26.549   4.221  13.216  0.75 13.77    -0.082 Cl
HETATM    9  C4    D T 502      24.508   7.021  15.135  0.75 41.22     0.028 A 
ENDBRANCH   1   2
BRANCH   1  10
HETATM   10  C8    D T 502      23.433   8.473  17.429  0.75 12.01     0.111 A 
HETATM   11  C9    D T 502      22.307   9.174  17.058  0.75  7.59     0.081 A 
HETATM   12  C10   D T 502      22.245  10.558  17.158  0.75  9.21     0.025 A 
HETATM   13 CL16   D T 502      20.918   8.320  16.448  0.75 22.03    -0.080 Cl
HETATM   14  C11   D T 502      23.364  11.242  17.648  0.75 25.58     0.059 A 
HETATM   15  C12   D T 502      24.512  10.546  18.028  0.75 18.79     0.013 A 
HETATM   16 CL15   D T 502      23.324  12.966  17.783  0.75 35.46    -0.082 Cl
HETATM   17  C13   D T 502      24.527   9.148  17.910  0.75  7.86     0.026 A 
ENDBRANCH   1  10
TORSDOF 2
ENDMDL
MODEL 6
REMARK VINA RESULT:      -7.7     10.398     12.338
REMARK  2 active torsions:
REMARK  status: ('A' for Active; 'I' for Inactive)
REMARK    1  A    between atoms: C5_4  and  O7_13 
REMARK    2  A    between atoms: C8_10  and  O7_13 
ROOT
HETATM    1  O7    D T 502      13.691   9.989  11.236  0.75  8.16    -0.304 OA
ENDROOT
BRANCH   1   2
HETATM    2  C5    D T 502      13.050  11.114  10.590  0.75 10.64     0.125 A 
HETATM    3  C6    D T 502      11.865  11.607  11.171  0.75 18.74     0.154 A 
HETATM    4  C1    D T 502      11.225  12.681  10.575  0.75 21.18     0.041 A 
HETATM    5  O17   D T 502      11.366  11.043  12.288  0.75  5.03    -0.188 OA
HETATM    6  C2    D T 502      11.772  13.226   9.451  0.75  4.79     0.060 A 
HETATM    7  C3    D T 502      12.925  12.752   8.862  0.75 38.32     0.014 A 
HETATM    8 CL14   D T 502      10.988  14.574   8.712  0.75 13.77    -0.082 Cl
HETATM    9  C4    D T 502      13.558  11.661   9.484  0.75 41.22     0.028 A 
ENDBRANCH   1   2
BRANCH   1  10
HETATM   10  C8    D T 502      14.550  10.175  12.334  0.75 12.01     0.111 A 
HETATM   11  C9    D T 502      14.327   9.385  13.441  0.75  7.59     0.081 A 
HETATM   12  C10   D T 502      15.115   9.488  14.580  0.75  9.21     0.025 A 
HETATM   13 CL16   D T 502      13.028   8.225  13.427  0.75 22.03    -0.080 Cl
HETATM   14  C11   D T 502      16.157  10.422  14.587  0.75 25.58     0.059 A 
HETATM   15  C12   D T 502      16.396  11.229  13.474  0.75 18.79     0.013 A 
HETATM   16 CL15   D T 502      17.158  10.579  15.989  0.75 35.46    -0.082 Cl
HETATM   17  C13   D T 502      15.573  11.089  12.346  0.75  7.86     0.026 A 
ENDBRANCH   1  10
TORSDOF 2
ENDMDL
MODEL 7
REMARK VINA RESULT:      -7.5      9.907     11.945
REMARK  2 active torsions:
REMARK  status: ('A' for Active; 'I' for Inactive)
REMARK    1  A    between atoms: C5_4  and  O7_13 
REMARK    2  A    between atoms: C8_10  and  O7_13 
ROOT
HETATM    1  O7    D T 502      14.471   9.938  11.405  0.75  8.16    -0.304 OA
ENDROOT
BRANCH   1   2
HETATM    2  C5    D T 502      13.640  10.976  10.833  0.75 10.64     0.125 A 
HETATM    3  C6    D T 502      14.218  11.803   9.852  0.75 18.74     0.154 A 
HETATM    4  C1    D T 502      13.450  12.809   9.287  0.75 21.18     0.041 A 
HETATM    5  O17   D T 502      15.496  11.617   9.468  0.75  5.03    -0.188 OA
HETATM    6  C2    D T 502      12.158  12.953   9.700  0.75  4.79     0.060 A 
HETATM    7  C3    D T 502      11.577  12.160  10.666  0.75 38.32     0.014 A 
HETATM    8 CL14   D T 502      11.191  14.193   8.990  0.75 13.77    -0.082 Cl
HETATM    9  C4    D T 502      12.375  11.146  11.225  0.75 41.22     0.028 A 
ENDBRANCH   1   2
BRANCH   1  10
HETATM   10  C8    D T 502      15.065  10.099  12.670  0.75 12.01     0.111 A 
HETATM   11  C9    D T 502      14.521   9.379  13.710  0.75  7.59     0.081 A 
HETATM   12  C10   D T 502      15.030   9.464  15.000  0.75  9.21     0.025 A 
HETATM   13 CL16   D T 502      13.161   8.332  13.419  0.75 22.03    -0.080 Cl
HETATM   14  C11   D T 502      16.123  10.308  15.230  0.75 25.58     0.059 A 
HETATM   15  C12   D T 502      16.686  11.044  14.186  0.75 18.79     0.013 A 
HETATM   16 CL15   D T 502      16.782  10.442  16.824  0.75 35.46    -0.082 Cl
HETATM   17  C13   D T 502      16.137  10.924  12.901  0.75  7.86     0.026 A 
ENDBRANCH   1  10
TORSDOF 2
ENDMDL
MODEL 8
REMARK VINA RESULT:      -7.4      9.912     11.159
REMARK  2 active torsions:
REMARK  status: ('A' for Active; 'I' for Inactive)
REMARK    1  A    between atoms: C5_4  and  O7_13 
REMARK    2  A    between atoms: C8_10  and  O7_13 
ROOT
HETATM    1  O7    D T 502      16.247  10.767  10.813  0.75  8.16    -0.304 OA
ENDROOT
BRANCH   1   2
HETATM    2  C5    D T 502      15.082  11.548  10.455  0.75 10.64     0.125 A 
HETATM    3  C6    D T 502      13.956  10.850   9.978  0.75 18.74     0.154 A 
HETATM    4  C1    D T 502      12.825  11.569   9.622  0.75 21.18     0.041 A 
HETATM    5  O17   D T 502      13.978   9.507   9.872  0.75  5.03    -0.188 OA
HETATM    6  C2    D T 502      12.846  12.925   9.756  0.75  4.79     0.060 A 
HETATM    7  C3    D T 502      13.942  13.627  10.211  0.75 38.32     0.014 A 
HETATM    8 CL14   D T 502      11.436  13.826   9.330  0.75 13.77    -0.082 Cl
HETATM    9  C4    D T 502      15.078  12.878  10.566  0.75 41.22     0.028 A 
ENDBRANCH   1   2
BRANCH   1  10
HETATM   10  C8    D T 502      17.400  10.771  10.007  0.75 12.01     0.111 A 
HETATM   11  C9    D T 502      18.561  10.299  10.577  0.75  7.59     0.081 A 
HETATM   12  C10   D T 502      19.756  10.260   9.871  0.75  9.21     0.025 A 
HETATM   13 CL16   D T 502      18.547   9.732  12.224  0.75 22.03    -0.080 Cl
HETATM   14  C11   D T 502      19.764  10.717   8.548  0.75 25.58     0.059 A 
HETATM   15  C12   D T 502      18.596  11.199   7.956  0.75 18.79     0.013 A 
HETATM   16 CL15   D T 502      21.234  10.686   7.638  0.75 35.46    -0.082 Cl
HETATM   17  C13   D T 502      17.412  11.218   8.709  0.75  7.86     0.026 A 
ENDBRANCH   1  10
TORSDOF 2
ENDMDL
MODEL 9
REMARK VINA RESULT:      -7.3      9.741     12.146
REMARK  2 active torsions:
REMARK  status: ('A' for Active; 'I' for Inactive)
REMARK    1  A    between atoms: C5_4  and  O7_13 
REMARK    2  A    between atoms: C8_10  and  O7_13 
ROOT
HETATM    1  O7    D T 502      14.599   9.844  11.356  0.75  8.16    -0.304 OA
ENDROOT
BRANCH   1   2
HETATM    2  C5    D T 502      15.111   9.925  12.707  0.75 10.64     0.125 A 
HETATM    3  C6    D T 502      14.559   9.052  13.663  0.75 18.74     0.154 A 
HETATM    4  C1    D T 502      15.025   9.107  14.967  0.75 21.18     0.041 A 
HETATM    5  O17   D T 502      13.595   8.178  13.314  0.75  5.03    -0.188 OA
HETATM    6  C2    D T 502      16.008  10.001  15.271  0.75  4.79     0.060 A 
HETATM    7  C3    D T 502      16.555  10.871  14.351  0.75 38.32     0.014 A 
HETATM    8 CL14   D T 502      16.605  10.065  16.890  0.75 13.77    -0.082 Cl
HETATM    9  C4    D T 502      16.067  10.798  13.035  0.75 41.22     0.028 A 
ENDBRANCH   1   2
BRANCH   1  10
HETATM   10  C8    D T 502      13.752  10.842  10.839  0.75 12.01     0.111 A 
HETATM   11  C9    D T 502      14.297  11.703   9.912  0.75  7.59     0.081 A 
HETATM   12  C10   D T 502      13.550  12.725   9.340  0.75  9.21     0.025 A 
HETATM   13 CL16   D T 502      15.962  11.519   9.435  0.75 22.03    -0.080 Cl
HETATM   14  C11   D T 502      12.213  12.869   9.727  0.75 25.58     0.059 A 
HETATM   15  C12   D T 502      11.647  12.006  10.665  0.75 18.79     0.013 A 
HETATM   16 CL15   D T 502      11.252  14.132   9.037  0.75 35.46    -0.082 Cl
HETATM   17  C13   D T 502      12.440  10.988  11.215  0.75  7.86     0.026 A 
ENDBRANCH   1  10
TORSDOF 2
ENDMDL
