MODEL 1
REMARK VINA RESULT:      -8.6      0.000      0.000
REMARK  3 active torsions:
REMARK  status: ('A' for Active; 'I' for Inactive)
REMARK    1  A    between atoms: C2_2  and  O11_20 
REMARK    2  A    between atoms: C10_10  and  N14_11 
REMARK    3  A    between atoms: N14_11  and  C15_12 
ROOT
HETATM    1  C1    D T9001      19.838   9.254  15.538  1.00 83.47     0.092 A 
HETATM    2  C2    D T9001      19.394  10.206  16.514  1.00 83.68     0.109 A 
HETATM    3  C3    D T9001      20.352  10.871  17.350  1.00 82.47     0.044 A 
HETATM    4  C4    D T9001      21.729  10.626  17.254  1.00 82.50     0.088 A 
HETATM    5  C5    D T9001      22.197   9.669  16.279  1.00 84.12     0.055 A 
HETATM    6  C6    D T9001      21.234   8.994  15.431  1.00 83.53     0.021 A 
HETATM    7  N7    D T9001      22.561  11.305  18.088  1.00 81.78    -0.224 NA
HETATM    8  C8    D T9001      23.891  11.058  17.975  1.00 83.59     0.200 A 
HETATM    9  N9    D T9001      24.465  10.189  17.109  1.00 84.30    -0.205 NA
HETATM   10  C10   D T9001      23.626   9.485  16.251  1.00 85.59     0.166 A 
HETATM   11  N13   D T9001      18.925   8.579  14.693  1.00 82.67    -0.099 NA
ENDROOT
BRANCH  10  12
HETATM   12  N14   D T9001      24.201   8.552  15.318  1.00 86.44    -0.227 NA
BRANCH  12  13
HETATM   13  C15   D T9001      24.461   7.172  15.548  1.00 87.38     0.084 A 
HETATM   14  C16   D T9001      25.135   6.363  14.574  1.00 88.13     0.033 A 
HETATM   15  C17   D T9001      25.383   4.991  14.805  1.00 88.88     0.087 A 
HETATM   16  C18   D T9001      24.955   4.401  16.025  1.00 88.55     0.151 A 
HETATM   17 CL     D T9001      26.197   4.064  13.592  1.00 89.26    -0.080 Cl
HETATM   18  C19   D T9001      24.284   5.178  17.013  1.00 87.62     0.032 A 
HETATM   19  F21   D T9001      25.180   3.097  16.260  1.00 88.92    -0.203 F 
HETATM   20  C20   D T9001      24.036   6.558  16.774  1.00 87.82     0.021 A 
ENDBRANCH  12  13
ENDBRANCH  10  12
BRANCH   2  21
HETATM   21  O11   D T9001      18.018  10.413  16.562  1.00 85.44    -0.327 OA
HETATM   22  C12   D T9001      17.284   9.820  17.640  1.00 84.41     0.181 C 
ENDBRANCH   2  21
TORSDOF 3
ENDMDL
MODEL 2
REMARK VINA RESULT:      -8.5      1.135      1.561
REMARK  3 active torsions:
REMARK  status: ('A' for Active; 'I' for Inactive)
REMARK    1  A    between atoms: C2_2  and  O11_20 
REMARK    2  A    between atoms: C10_10  and  N14_11 
REMARK    3  A    between atoms: N14_11  and  C15_12 
ROOT
HETATM    1  C1    D T9001      19.660   9.287  15.368  1.00 83.47     0.092 A 
HETATM    2  C2    D T9001      19.142  10.050  16.465  1.00 83.68     0.109 A 
HETATM    3  C3    D T9001      20.045  10.694  17.376  1.00 82.47     0.044 A 
HETATM    4  C4    D T9001      21.437  10.608  17.238  1.00 82.50     0.088 A 
HETATM    5  C5    D T9001      21.980   9.841  16.141  1.00 84.12     0.055 A 
HETATM    6  C6    D T9001      21.073   9.188  15.218  1.00 83.53     0.021 A 
HETATM    7  N7    D T9001      22.213  11.253  18.151  1.00 81.78    -0.224 NA
HETATM    8  C8    D T9001      23.559  11.161  17.996  1.00 83.59     0.200 A 
HETATM    9  N9    D T9001      24.199  10.479  17.017  1.00 84.30    -0.205 NA
HETATM   10  C10   D T9001      23.419   9.812  16.079  1.00 85.59     0.166 A 
HETATM   11  N13   D T9001      18.804   8.638  14.447  1.00 82.67    -0.099 NA
ENDROOT
BRANCH  10  12
HETATM   12  N14   D T9001      24.067   9.074  15.026  1.00 86.44    -0.227 NA
BRANCH  12  13
HETATM   13  C15   D T9001      24.447   7.703  15.058  1.00 87.38     0.084 A 
HETATM   14  C16   D T9001      24.170   6.875  16.196  1.00 88.13     0.033 A 
HETATM   15  C17   D T9001      24.557   5.516  16.224  1.00 88.88     0.087 A 
HETATM   16  C18   D T9001      25.236   4.961  15.107  1.00 88.55     0.151 A 
HETATM   17 CL     D T9001      24.199   4.566  17.626  1.00 89.26    -0.080 Cl
HETATM   18  C19   D T9001      25.525   5.756  13.961  1.00 87.62     0.032 A 
HETATM   19  F21   D T9001      25.614   3.671  15.119  1.00 88.92    -0.203 F 
HETATM   20  C20   D T9001      25.134   7.124  13.938  1.00 87.82     0.021 A 
ENDBRANCH  12  13
ENDBRANCH  10  12
BRANCH   2  21
HETATM   21  O11   D T9001      17.754  10.105  16.551  1.00 85.44    -0.327 OA
HETATM   22  C12   D T9001      17.114   9.386  17.610  1.00 84.41     0.181 C 
ENDBRANCH   2  21
TORSDOF 3
ENDMDL
MODEL 3
REMARK VINA RESULT:      -8.4      8.506     11.301
REMARK  3 active torsions:
REMARK  status: ('A' for Active; 'I' for Inactive)
REMARK    1  A    between atoms: C2_2  and  O11_20 
REMARK    2  A    between atoms: C10_10  and  N14_11 
REMARK    3  A    between atoms: N14_11  and  C15_12 
ROOT
HETATM    1  C1    D T9001      18.197  10.957   8.470  1.00 83.47     0.092 A 
HETATM    2  C2    D T9001      19.421  11.087   9.206  1.00 83.68     0.109 A 
HETATM    3  C3    D T9001      19.509  10.567  10.541  1.00 82.47     0.044 A 
HETATM    4  C4    D T9001      18.432   9.927  11.169  1.00 82.50     0.088 A 
HETATM    5  C5    D T9001      17.189   9.787  10.446  1.00 84.12     0.055 A 
HETATM    6  C6    D T9001      17.094  10.310   9.097  1.00 83.53     0.021 A 
HETATM    7  N7    D T9001      18.611   9.466  12.436  1.00 81.78    -0.224 NA
HETATM    8  C8    D T9001      17.557   8.843  13.024  1.00 83.59     0.200 A 
HETATM    9  N9    D T9001      16.340   8.646  12.464  1.00 84.30    -0.205 NA
HETATM   10  C10   D T9001      16.142   9.114  11.170  1.00 85.59     0.166 A 
HETATM   11  N13   D T9001      18.070  11.454   7.151  1.00 82.67    -0.099 NA
ENDROOT
BRANCH  10  12
HETATM   12  N14   D T9001      14.859   8.923  10.544  1.00 86.44    -0.227 NA
BRANCH  12  13
HETATM   13  C15   D T9001      13.756   9.821  10.575  1.00 87.38     0.084 A 
HETATM   14  C16   D T9001      13.681  10.948   9.690  1.00 88.13     0.033 A 
HETATM   15  C17   D T9001      12.587  11.840   9.731  1.00 88.88     0.087 A 
HETATM   16  C18   D T9001      11.542  11.620  10.668  1.00 88.55     0.151 A 
HETATM   17 CL     D T9001      12.552  13.185   8.642  1.00 89.26    -0.080 Cl
HETATM   18  C19   D T9001      11.585  10.509  11.559  1.00 87.62     0.032 A 
HETATM   19  F21   D T9001      10.495  12.460  10.723  1.00 88.92    -0.203 F 
HETATM   20  C20   D T9001      12.690   9.614  11.514  1.00 87.82     0.021 A 
ENDBRANCH  12  13
ENDBRANCH  10  12
BRANCH   2  21
HETATM   21  O11   D T9001      20.457  11.727   8.533  1.00 85.44    -0.327 OA
HETATM   22  C12   D T9001      21.472  10.917   7.929  1.00 84.41     0.181 C 
ENDBRANCH   2  21
TORSDOF 3
ENDMDL
MODEL 4
REMARK VINA RESULT:      -8.0      7.774     10.684
REMARK  3 active torsions:
REMARK  status: ('A' for Active; 'I' for Inactive)
REMARK    1  A    between atoms: C2_2  and  O11_20 
REMARK    2  A    between atoms: C10_10  and  N14_11 
REMARK    3  A    between atoms: N14_11  and  C15_12 
ROOT
HETATM    1  C1    D T9001      16.245   8.873  14.687  1.00 83.47     0.092 A 
HETATM    2  C2    D T9001      17.629   9.196  14.879  1.00 83.68     0.109 A 
HETATM    3  C3    D T9001      18.441   9.555  13.752  1.00 82.47     0.044 A 
HETATM    4  C4    D T9001      17.932   9.604  12.447  1.00 82.50     0.088 A 
HETATM    5  C5    D T9001      16.541   9.279  12.230  1.00 84.12     0.055 A 
HETATM    6  C6    D T9001      15.716   8.916  13.365  1.00 83.53     0.021 A 
HETATM    7  N7    D T9001      18.779   9.956  11.441  1.00 81.78    -0.224 NA
HETATM    8  C8    D T9001      18.264  10.003  10.185  1.00 83.59     0.200 A 
HETATM    9  N9    D T9001      16.985   9.724   9.842  1.00 84.30    -0.205 NA
HETATM   10  C10   D T9001      16.109   9.360  10.859  1.00 85.59     0.166 A 
HETATM   11  N13   D T9001      15.410   8.516  15.773  1.00 82.67    -0.099 NA
ENDROOT
BRANCH  10  12
HETATM   12  N14   D T9001      14.741   9.055  10.530  1.00 86.44    -0.227 NA
BRANCH  12  13
HETATM   13  C15   D T9001      13.641   9.958  10.545  1.00 87.38     0.084 A 
HETATM   14  C16   D T9001      13.582  11.083   9.658  1.00 88.13     0.033 A 
HETATM   15  C17   D T9001      12.491  11.981   9.684  1.00 88.88     0.087 A 
HETATM   16  C18   D T9001      11.433  11.766  10.608  1.00 88.55     0.151 A 
HETATM   17 CL     D T9001      12.476  13.323   8.592  1.00 89.26    -0.080 Cl
HETATM   18  C19   D T9001      11.461  10.657  11.501  1.00 87.62     0.032 A 
HETATM   19  F21   D T9001      10.390  12.612  10.648  1.00 88.92    -0.203 F 
HETATM   20  C20   D T9001      12.563   9.757  11.472  1.00 87.82     0.021 A 
ENDBRANCH  12  13
ENDBRANCH  10  12
BRANCH   2  21
HETATM   21  O11   D T9001      18.078   9.135  16.195  1.00 85.44    -0.327 OA
HETATM   22  C12   D T9001      18.378  10.365  16.863  1.00 84.41     0.181 C 
ENDBRANCH   2  21
TORSDOF 3
ENDMDL
MODEL 5
REMARK VINA RESULT:      -7.9      6.240      9.277
REMARK  3 active torsions:
REMARK  status: ('A' for Active; 'I' for Inactive)
REMARK    1  A    between atoms: C2_2  and  O11_20 
REMARK    2  A    between atoms: C10_10  and  N14_11 
REMARK    3  A    between atoms: N14_11  and  C15_12 
ROOT
HETATM    1  C1    D T9001      18.740  10.144  17.828  1.00 83.47     0.092 A 
HETATM    2  C2    D T9001      20.053   9.766  17.393  1.00 83.68     0.109 A 
HETATM    3  C3    D T9001      20.292   9.486  16.007  1.00 82.47     0.044 A 
HETATM    4  C4    D T9001      19.280   9.566  15.040  1.00 82.50     0.088 A 
HETATM    5  C5    D T9001      17.949   9.942  15.457  1.00 84.12     0.055 A 
HETATM    6  C6    D T9001      17.701  10.227  16.857  1.00 83.53     0.021 A 
HETATM    7  N7    D T9001      19.603   9.283  13.749  1.00 81.78    -0.224 NA
HETATM    8  C8    D T9001      18.609   9.372  12.828  1.00 83.59     0.200 A 
HETATM    9  N9    D T9001      17.322   9.711  13.080  1.00 84.30    -0.205 NA
HETATM   10  C10   D T9001      16.978  10.000  14.396  1.00 85.59     0.166 A 
HETATM   11  N13   D T9001      18.463  10.431  19.186  1.00 82.67    -0.099 NA
ENDROOT
BRANCH  10  12
HETATM   12  N14   D T9001      15.618  10.363  14.700  1.00 86.44    -0.227 NA
BRANCH  12  13
HETATM   13  C15   D T9001      14.478  10.152  13.875  1.00 87.38     0.084 A 
HETATM   14  C16   D T9001      13.810  11.242  13.225  1.00 88.13     0.033 A 
HETATM   15  C17   D T9001      12.674  11.027  12.413  1.00 88.88     0.087 A 
HETATM   16  C18   D T9001      12.182   9.706  12.238  1.00 88.55     0.151 A 
HETATM   17 CL     D T9001      11.907  12.382  11.657  1.00 89.26    -0.080 Cl
HETATM   18  C19   D T9001      12.824   8.601  12.868  1.00 87.62     0.032 A 
HETATM   19  F21   D T9001      11.101   9.483  11.472  1.00 88.92    -0.203 F 
HETATM   20  C20   D T9001      13.966   8.824  13.686  1.00 87.82     0.021 A 
ENDBRANCH  12  13
ENDBRANCH  10  12
BRANCH   2  21
HETATM   21  O11   D T9001      21.018   9.708  18.394  1.00 85.44    -0.327 OA
HETATM   22  C12   D T9001      22.313   9.200  18.054  1.00 84.41     0.181 C 
ENDBRANCH   2  21
TORSDOF 3
ENDMDL
MODEL 6
REMARK VINA RESULT:      -7.8      6.226      8.487
REMARK  3 active torsions:
REMARK  status: ('A' for Active; 'I' for Inactive)
REMARK    1  A    between atoms: C2_2  and  O11_20 
REMARK    2  A    between atoms: C10_10  and  N14_11 
REMARK    3  A    between atoms: N14_11  and  C15_12 
ROOT
HETATM    1  C1    D T9001      13.969  11.438  13.287  1.00 83.47     0.092 A 
HETATM    2  C2    D T9001      13.750  10.825  12.010  1.00 83.68     0.109 A 
HETATM    3  C3    D T9001      14.164   9.469  11.788  1.00 82.47     0.044 A 
HETATM    4  C4    D T9001      14.785   8.703  12.784  1.00 82.50     0.088 A 
HETATM    5  C5    D T9001      15.017   9.302  14.078  1.00 84.12     0.055 A 
HETATM    6  C6    D T9001      14.601  10.671  14.308  1.00 83.53     0.021 A 
HETATM    7  N7    D T9001      15.141   7.425  12.482  1.00 81.78    -0.224 NA
HETATM    8  C8    D T9001      15.736   6.699  13.463  1.00 83.59     0.200 A 
HETATM    9  N9    D T9001      16.013   7.133  14.715  1.00 84.30    -0.205 NA
HETATM   10  C10   D T9001      15.657   8.439  15.037  1.00 85.59     0.166 A 
HETATM   11  N13   D T9001      13.573  12.772  13.546  1.00 82.67    -0.099 NA
ENDROOT
BRANCH  10  12
HETATM   12  N14   D T9001      15.938   8.935  16.359  1.00 86.44    -0.227 NA
BRANCH  12  13
HETATM   13  C15   D T9001      17.172   9.474  16.820  1.00 87.38     0.084 A 
HETATM   14  C16   D T9001      17.404   9.734  18.211  1.00 88.13     0.033 A 
HETATM   15  C17   D T9001      18.629  10.276  18.660  1.00 88.88     0.087 A 
HETATM   16  C18   D T9001      19.650  10.571  17.717  1.00 88.55     0.151 A 
HETATM   17 CL     D T9001      18.852  10.573  20.351  1.00 89.26    -0.080 Cl
HETATM   18  C19   D T9001      19.451  10.323  16.328  1.00 87.62     0.032 A 
HETATM   19  F21   D T9001      20.819  11.090  18.127  1.00 88.92    -0.203 F 
HETATM   20  C20   D T9001      18.215   9.778  15.881  1.00 87.82     0.021 A 
ENDBRANCH  12  13
ENDBRANCH  10  12
BRANCH   2  21
HETATM   21  O11   D T9001      13.127  11.630  11.061  1.00 85.44    -0.327 OA
HETATM   22  C12   D T9001      13.198  11.233   9.687  1.00 84.41     0.181 C 
ENDBRANCH   2  21
TORSDOF 3
ENDMDL
MODEL 7
REMARK VINA RESULT:      -7.8      6.686      9.495
REMARK  3 active torsions:
REMARK  status: ('A' for Active; 'I' for Inactive)
REMARK    1  A    between atoms: C2_2  and  O11_20 
REMARK    2  A    between atoms: C10_10  and  N14_11 
REMARK    3  A    between atoms: N14_11  and  C15_12 
ROOT
HETATM    1  C1    D T9001      13.142  12.355  11.943  1.00 83.47     0.092 A 
HETATM    2  C2    D T9001      12.563  11.806  10.752  1.00 83.68     0.109 A 
HETATM    3  C3    D T9001      12.629  10.393  10.512  1.00 82.47     0.044 A 
HETATM    4  C4    D T9001      13.248   9.509  11.407  1.00 82.50     0.088 A 
HETATM    5  C5    D T9001      13.841  10.042  12.612  1.00 84.12     0.055 A 
HETATM    6  C6    D T9001      13.777  11.469  12.860  1.00 83.53     0.021 A 
HETATM    7  N7    D T9001      13.262   8.185  11.095  1.00 81.78    -0.224 NA
HETATM    8  C8    D T9001      13.862   7.346  11.978  1.00 83.59     0.200 A 
HETATM    9  N9    D T9001      14.454   7.709  13.140  1.00 84.30    -0.205 NA
HETATM   10  C10   D T9001      14.451   9.060  13.471  1.00 85.59     0.166 A 
HETATM   11  N13   D T9001      13.095  13.743  12.217  1.00 82.67    -0.099 NA
ENDROOT
BRANCH  10  12
HETATM   12  N14   D T9001      15.074   9.482  14.698  1.00 86.44    -0.227 NA
BRANCH  12  13
HETATM   13  C15   D T9001      16.469   9.632  14.935  1.00 87.38     0.084 A 
HETATM   14  C16   D T9001      16.992  10.759  15.651  1.00 88.13     0.033 A 
HETATM   15  C17   D T9001      18.379  10.905  15.876  1.00 88.88     0.087 A 
HETATM   16  C18   D T9001      19.273   9.918  15.383  1.00 88.55     0.151 A 
HETATM   17 CL     D T9001      18.953  12.289  16.743  1.00 89.26    -0.080 Cl
HETATM   18  C19   D T9001      18.786   8.785  14.670  1.00 87.62     0.032 A 
HETATM   19  F21   D T9001      20.596  10.042  15.586  1.00 88.92    -0.203 F 
HETATM   20  C20   D T9001      17.388   8.643  14.445  1.00 87.82     0.021 A 
ENDBRANCH  12  13
ENDBRANCH  10  12
BRANCH   2  21
HETATM   21  O11   D T9001      11.958  12.728   9.902  1.00 85.44    -0.327 OA
HETATM   22  C12   D T9001      12.630  13.064   8.683  1.00 84.41     0.181 C 
ENDBRANCH   2  21
TORSDOF 3
ENDMDL
MODEL 8
REMARK VINA RESULT:      -7.7      2.562      3.368
REMARK  3 active torsions:
REMARK  status: ('A' for Active; 'I' for Inactive)
REMARK    1  A    between atoms: C2_2  and  O11_20 
REMARK    2  A    between atoms: C10_10  and  N14_11 
REMARK    3  A    between atoms: N14_11  and  C15_12 
ROOT
HETATM    1  C1    D T9001      18.151   9.147  14.940  1.00 83.47     0.092 A 
HETATM    2  C2    D T9001      17.422  10.381  14.949  1.00 83.68     0.109 A 
HETATM    3  C3    D T9001      17.869  11.468  15.772  1.00 82.47     0.044 A 
HETATM    4  C4    D T9001      19.009  11.375  16.583  1.00 82.50     0.088 A 
HETATM    5  C5    D T9001      19.757  10.139  16.590  1.00 84.12     0.055 A 
HETATM    6  C6    D T9001      19.310   9.038  15.761  1.00 83.53     0.021 A 
HETATM    7  N7    D T9001      19.356  12.459  17.328  1.00 81.78    -0.224 NA
HETATM    8  C8    D T9001      20.467  12.350  18.102  1.00 83.59     0.200 A 
HETATM    9  N9    D T9001      21.257  11.255  18.204  1.00 84.30    -0.205 NA
HETATM   10  C10   D T9001      20.912  10.138  17.450  1.00 85.59     0.166 A 
HETATM   11  N13   D T9001      17.744   8.052  14.140  1.00 82.67    -0.099 NA
ENDROOT
BRANCH  10  12
HETATM   12  N14   D T9001      21.730   8.956  17.536  1.00 86.44    -0.227 NA
BRANCH  12  13
HETATM   13  C15   D T9001      22.746   8.558  16.622  1.00 87.38     0.084 A 
HETATM   14  C16   D T9001      23.289   9.472  15.659  1.00 88.13     0.033 A 
HETATM   15  C17   D T9001      24.293   9.068  14.751  1.00 88.88     0.087 A 
HETATM   16  C18   D T9001      24.772   7.731  14.789  1.00 88.55     0.151 A 
HETATM   17 CL     D T9001      24.908  10.213  13.608  1.00 89.26    -0.080 Cl
HETATM   18  C19   D T9001      24.254   6.800  15.734  1.00 87.62     0.032 A 
HETATM   19  F21   D T9001      25.724   7.329  13.930  1.00 88.92    -0.203 F 
HETATM   20  C20   D T9001      23.243   7.211  16.647  1.00 87.82     0.021 A 
ENDBRANCH  12  13
ENDBRANCH  10  12
BRANCH   2  21
HETATM   21  O11   D T9001      16.302  10.419  14.123  1.00 85.44    -0.327 OA
HETATM   22  C12   D T9001      16.186  11.502  13.193  1.00 84.41     0.181 C 
ENDBRANCH   2  21
TORSDOF 3
ENDMDL
MODEL 9
REMARK VINA RESULT:      -7.6      6.389      9.111
REMARK  3 active torsions:
REMARK  status: ('A' for Active; 'I' for Inactive)
REMARK    1  A    between atoms: C2_2  and  O11_20 
REMARK    2  A    between atoms: C10_10  and  N14_11 
REMARK    3  A    between atoms: N14_11  and  C15_12 
ROOT
HETATM    1  C1    D T9001      15.688  11.739  10.723  1.00 83.47     0.092 A 
HETATM    2  C2    D T9001      14.420  11.685  10.056  1.00 83.68     0.109 A 
HETATM    3  C3    D T9001      13.580  10.532  10.212  1.00 82.47     0.044 A 
HETATM    4  C4    D T9001      13.952   9.435  11.001  1.00 82.50     0.088 A 
HETATM    5  C5    D T9001      15.227   9.468  11.679  1.00 84.12     0.055 A 
HETATM    6  C6    D T9001      16.080  10.630  11.526  1.00 83.53     0.021 A 
HETATM    7  N7    D T9001      13.089   8.387  11.089  1.00 81.78    -0.224 NA
HETATM    8  C8    D T9001      13.466   7.337  11.863  1.00 83.59     0.200 A 
HETATM    9  N9    D T9001      14.628   7.236  12.552  1.00 84.30    -0.205 NA
HETATM   10  C10   D T9001      15.521   8.299  12.468  1.00 85.59     0.166 A 
HETATM   11  N13   D T9001      16.544  12.859  10.597  1.00 82.67    -0.099 NA
ENDROOT
BRANCH  10  12
HETATM   12  N14   D T9001      16.767   8.225  13.186  1.00 86.44    -0.227 NA
BRANCH  12  13
HETATM   13  C15   D T9001      16.992   8.606  14.539  1.00 87.38     0.084 A 
HETATM   14  C16   D T9001      18.317   8.801  15.052  1.00 88.13     0.033 A 
HETATM   15  C17   D T9001      18.534   9.172  16.398  1.00 88.88     0.087 A 
HETATM   16  C18   D T9001      17.419   9.353  17.260  1.00 88.55     0.151 A 
HETATM   17 CL     D T9001      20.155   9.390  16.964  1.00 89.26    -0.080 Cl
HETATM   18  C19   D T9001      16.091   9.169  16.780  1.00 87.62     0.032 A 
HETATM   19  F21   D T9001      17.607   9.703  18.544  1.00 88.92    -0.203 F 
HETATM   20  C20   D T9001      15.878   8.794  15.424  1.00 87.82     0.021 A 
ENDBRANCH  12  13
ENDBRANCH  10  12
BRANCH   2  21
HETATM   21  O11   D T9001      14.101  12.803   9.290  1.00 85.44    -0.327 OA
HETATM   22  C12   D T9001      12.789  12.880   8.722  1.00 84.41     0.181 C 
ENDBRANCH   2  21
TORSDOF 3
ENDMDL
