MODEL 1
REMARK VINA RESULT:      -7.0      0.000      0.000
REMARK  2 active torsions:
REMARK  status: ('A' for Active; 'I' for Inactive)
REMARK    1  A    between atoms: C5_4  and  O7_13 
REMARK    2  A    between atoms: C8_10  and  O7_13 
ROOT
HETATM    1  O7    D T 600      -2.099   3.235  -6.532  1.00 18.03    -0.309 OA
ENDROOT
BRANCH   1   2
HETATM    2  C5    D T 600      -1.189   2.703  -7.463  1.00 18.33     0.099 A 
HETATM    3  C6    D T 600      -0.114   1.757  -7.088  1.00 17.53     0.132 A 
HETATM    4  C1    D T 600       0.813   1.235  -8.090  1.00 16.53     0.089 A 
HETATM    5  O17   D T 600       0.043   1.347  -5.781  1.00 20.49    -0.193 OA
HETATM    6  C2    D T 600       0.655   1.666  -9.463  1.00 14.58     0.020 A 
HETATM    7  C3    D T 600      -0.403   2.598  -9.839  1.00 14.14     0.041 A 
HETATM    8 CL14   D T 600       1.668   1.108 -10.660  1.00  1.00    -0.091 Cl
HETATM    9  C4    D T 600      -1.324   3.114  -8.837  1.00 16.13     0.059 A 
ENDBRANCH   1   2
BRANCH   1  10
HETATM   10  C8    D T 600      -3.426   2.700  -6.341  1.00 16.10     0.106 A 
HETATM   11  C9    D T 600      -3.713   2.094  -4.941  1.00 14.15     0.063 A 
HETATM   12  C10   D T 600      -5.019   1.520  -4.668  1.00 14.71     0.078 A 
HETATM   13 CL16   D T 600      -2.547   2.076  -3.745  1.00  1.00    -0.085 Cl
HETATM   14  C11   D T 600      -6.040   1.552  -5.787  1.00 14.35     0.041 A 
HETATM   15  C12   D T 600      -5.713   2.124  -7.028  1.00 18.52     0.009 A 
HETATM   16 CL15   D T 600      -7.542   0.869  -5.452  1.00  1.63    -0.087 Cl
HETATM   17  C13   D T 600      -4.513   2.674  -7.347  1.00 15.99     0.026 A 
ENDBRANCH   1  10
TORSDOF 2
ENDMDL
MODEL 2
REMARK VINA RESULT:      -6.9      1.077      5.932
REMARK  2 active torsions:
REMARK  status: ('A' for Active; 'I' for Inactive)
REMARK    1  A    between atoms: C5_4  and  O7_13 
REMARK    2  A    between atoms: C8_10  and  O7_13 
ROOT
HETATM    1  O7    D T 600      -2.140   3.272  -6.454  1.00 18.03    -0.309 OA
ENDROOT
BRANCH   1   2
HETATM    2  C5    D T 600      -3.396   2.703  -6.179  1.00 18.33     0.099 A 
HETATM    3  C6    D T 600      -3.741   2.107  -4.868  1.00 17.53     0.132 A 
HETATM    4  C1    D T 600      -5.058   1.521  -4.631  1.00 16.53     0.089 A 
HETATM    5  O17   D T 600      -2.825   2.088  -3.837  1.00 20.49    -0.193 OA
HETATM    6  C2    D T 600      -6.022   1.535  -5.711  1.00 14.58     0.020 A 
HETATM    7  C3    D T 600      -5.688   2.121  -7.005  1.00 14.14     0.041 A 
HETATM    8 CL14   D T 600      -7.544   0.893  -5.512  1.00  1.00    -0.091 Cl
HETATM    9  C4    D T 600      -4.375   2.705  -7.235  1.00 16.13     0.059 A 
ENDBRANCH   1   2
BRANCH   1  10
HETATM   10  C8    D T 600      -1.283   2.800  -7.516  1.00 16.10     0.106 A 
HETATM   11  C9    D T 600      -0.125   1.862  -7.081  1.00 14.15     0.063 A 
HETATM   12  C10   D T 600       0.794   1.352  -8.083  1.00 14.71     0.078 A 
HETATM   13 CL16   D T 600       0.094   1.436  -5.480  1.00  1.00    -0.085 Cl
HETATM   14  C11   D T 600       0.558   1.773  -9.519  1.00 14.35     0.041 A 
HETATM   15  C12   D T 600      -0.516   2.620  -9.842  1.00 18.52     0.009 A 
HETATM   16 CL15   D T 600       1.644   1.182 -10.662  1.00  1.63    -0.087 Cl
HETATM   17  C13   D T 600      -1.407   3.131  -8.954  1.00 15.99     0.026 A 
ENDBRANCH   1  10
TORSDOF 2
ENDMDL
MODEL 3
REMARK VINA RESULT:      -6.8      2.008      5.960
REMARK  2 active torsions:
REMARK  status: ('A' for Active; 'I' for Inactive)
REMARK    1  A    between atoms: C5_4  and  O7_13 
REMARK    2  A    between atoms: C8_10  and  O7_13 
ROOT
HETATM    1  O7    D T 600      -1.995   3.046  -5.622  1.00 18.03    -0.309 OA
ENDROOT
BRANCH   1   2
HETATM    2  C5    D T 600      -2.697   2.044  -4.930  1.00 18.33     0.099 A 
HETATM    3  C6    D T 600      -2.031   1.047  -4.061  1.00 17.53     0.132 A 
HETATM    4  C1    D T 600      -2.802   0.018  -3.366  1.00 16.53     0.089 A 
HETATM    5  O17   D T 600      -0.663   1.064  -3.886  1.00 20.49    -0.193 OA
HETATM    6  C2    D T 600      -4.238  -0.005  -3.549  1.00 14.58     0.020 A 
HETATM    7  C3    D T 600      -4.901   0.974  -4.405  1.00 14.14     0.041 A 
HETATM    8 CL14   D T 600      -5.182  -1.142  -2.785  1.00  1.00    -0.091 Cl
HETATM    9  C4    D T 600      -4.128   1.997  -5.093  1.00 16.13     0.059 A 
ENDBRANCH   1   2
BRANCH   1  10
HETATM   10  C8    D T 600      -1.321   2.806  -6.876  1.00 16.10     0.106 A 
HETATM   11  C9    D T 600      -2.093   3.239  -8.151  1.00 14.15     0.063 A 
HETATM   12  C10   D T 600      -1.494   3.020  -9.455  1.00 14.71     0.078 A 
HETATM   13 CL16   D T 600      -3.607   3.941  -8.054  1.00  1.00    -0.085 Cl
HETATM   14  C11   D T 600      -0.126   2.373  -9.491  1.00 14.35     0.041 A 
HETATM   15  C12   D T 600       0.520   2.012  -8.296  1.00 18.52     0.009 A 
HETATM   16 CL15   D T 600       0.544   2.117 -11.014  1.00  1.63    -0.087 Cl
HETATM   17  C13   D T 600       0.014   2.187  -7.048  1.00 15.99     0.026 A 
ENDBRANCH   1  10
TORSDOF 2
ENDMDL
MODEL 4
REMARK VINA RESULT:      -6.7      2.003      2.867
REMARK  2 active torsions:
REMARK  status: ('A' for Active; 'I' for Inactive)
REMARK    1  A    between atoms: C5_4  and  O7_13 
REMARK    2  A    between atoms: C8_10  and  O7_13 
ROOT
HETATM    1  O7    D T 600      -1.555   2.777  -5.108  1.00 18.03    -0.309 OA
ENDROOT
BRANCH   1   2
HETATM    2  C5    D T 600      -1.060   2.593  -6.411  1.00 18.33     0.099 A 
HETATM    3  C6    D T 600      -1.734   3.135  -7.613  1.00 17.53     0.132 A 
HETATM    4  C1    D T 600      -1.185   2.912  -8.949  1.00 16.53     0.089 A 
HETATM    5  O17   D T 600      -2.901   3.861  -7.502  1.00 20.49    -0.193 OA
HETATM    6  C2    D T 600       0.038   2.147  -9.070  1.00 14.58     0.020 A 
HETATM    7  C3    D T 600       0.707   1.611  -7.890  1.00 14.14     0.041 A 
HETATM    8 CL14   D T 600       0.726   1.859 -10.558  1.00  1.00    -0.091 Cl
HETATM    9  C4    D T 600       0.157   1.837  -6.562  1.00 16.13     0.059 A 
ENDBRANCH   1   2
BRANCH   1  10
HETATM   10  C8    D T 600      -2.433   1.829  -4.464  1.00 16.10     0.106 A 
HETATM   11  C9    D T 600      -1.774   0.920  -3.392  1.00 14.15     0.063 A 
HETATM   12  C10   D T 600      -2.582  -0.073  -2.705  1.00 14.71     0.078 A 
HETATM   13 CL16   D T 600      -0.150   1.051  -3.020  1.00  1.00    -0.085 Cl
HETATM   14  C11   D T 600      -4.046  -0.158  -3.083  1.00 14.35     0.041 A 
HETATM   15  C12   D T 600      -4.578   0.702  -4.059  1.00 18.52     0.009 A 
HETATM   16 CL15   D T 600      -4.960  -1.325  -2.285  1.00  1.63    -0.087 Cl
HETATM   17  C13   D T 600      -3.878   1.647  -4.737  1.00 15.99     0.026 A 
ENDBRANCH   1  10
TORSDOF 2
ENDMDL
MODEL 5
REMARK VINA RESULT:      -6.6      2.059      6.005
REMARK  2 active torsions:
REMARK  status: ('A' for Active; 'I' for Inactive)
REMARK    1  A    between atoms: C5_4  and  O7_13 
REMARK    2  A    between atoms: C8_10  and  O7_13 
ROOT
HETATM    1  O7    D T 600      -2.462   3.238  -5.572  1.00 18.03    -0.309 OA
ENDROOT
BRANCH   1   2
HETATM    2  C5    D T 600      -3.140   2.193  -4.921  1.00 18.33     0.099 A 
HETATM    3  C6    D T 600      -4.612   2.039  -4.962  1.00 17.53     0.132 A 
HETATM    4  C1    D T 600      -5.274   0.939  -4.263  1.00 16.53     0.089 A 
HETATM    5  O17   D T 600      -5.397   2.932  -5.661  1.00 20.49    -0.193 OA
HETATM    6  C2    D T 600      -4.455   0.001  -3.526  1.00 14.58     0.020 A 
HETATM    7  C3    D T 600      -3.003   0.148  -3.481  1.00 14.14     0.041 A 
HETATM    8 CL14   D T 600      -5.138  -1.279  -2.711  1.00  1.00    -0.091 Cl
HETATM    9  C4    D T 600      -2.350   1.244  -4.180  1.00 16.13     0.059 A 
ENDBRANCH   1   2
BRANCH   1  10
HETATM   10  C8    D T 600      -1.936   3.113  -6.911  1.00 16.10     0.106 A 
HETATM   11  C9    D T 600      -0.419   2.799  -7.012  1.00 14.15     0.063 A 
HETATM   12  C10   D T 600       0.197   2.672  -8.322  1.00 14.71     0.078 A 
HETATM   13 CL16   D T 600       0.525   2.616  -5.645  1.00  1.00    -0.085 Cl
HETATM   14  C11   D T 600      -0.698   2.854  -9.530  1.00 14.35     0.041 A 
HETATM   15  C12   D T 600      -2.066   3.131  -9.364  1.00 18.52     0.009 A 
HETATM   16 CL15   D T 600       0.039   2.716 -11.037  1.00  1.63    -0.087 Cl
HETATM   17  C13   D T 600      -2.700   3.264  -8.171  1.00 15.99     0.026 A 
ENDBRANCH   1  10
TORSDOF 2
ENDMDL
MODEL 6
REMARK VINA RESULT:      -6.6      2.165      3.486
REMARK  2 active torsions:
REMARK  status: ('A' for Active; 'I' for Inactive)
REMARK    1  A    between atoms: C5_4  and  O7_13 
REMARK    2  A    between atoms: C8_10  and  O7_13 
ROOT
HETATM    1  O7    D T 600      -1.235   2.891  -5.276  1.00 18.03    -0.309 OA
ENDROOT
BRANCH   1   2
HETATM    2  C5    D T 600      -0.644   2.517  -6.495  1.00 18.33     0.099 A 
HETATM    3  C6    D T 600      -1.176   2.937  -7.812  1.00 17.53     0.132 A 
HETATM    4  C1    D T 600      -0.531   2.517  -9.054  1.00 16.53     0.089 A 
HETATM    5  O17   D T 600      -2.297   3.736  -7.899  1.00 20.49    -0.193 OA
HETATM    6  C2    D T 600       0.644   1.676  -8.968  1.00 14.58     0.020 A 
HETATM    7  C3    D T 600       1.173   1.257  -7.674  1.00 14.14     0.041 A 
HETATM    8 CL14   D T 600       1.435   1.163 -10.339  1.00  1.00    -0.091 Cl
HETATM    9  C4    D T 600       0.528   1.680  -6.440  1.00 16.13     0.059 A 
ENDBRANCH   1   2
BRANCH   1  10
HETATM   10  C8    D T 600      -1.671   1.931  -4.290  1.00 16.10     0.106 A 
HETATM   11  C9    D T 600      -3.119   1.397  -4.464  1.00 14.15     0.063 A 
HETATM   12  C10   D T 600      -3.644   0.438  -3.508  1.00 14.71     0.078 A 
HETATM   13 CL16   D T 600      -4.091   1.912  -5.722  1.00  1.00    -0.085 Cl
HETATM   14  C11   D T 600      -2.728   0.008  -2.382  1.00 14.35     0.041 A 
HETATM   15  C12   D T 600      -1.425   0.528  -2.290  1.00 18.52     0.009 A 
HETATM   16 CL15   D T 600      -3.362  -1.093  -1.277  1.00  1.63    -0.087 Cl
HETATM   17  C13   D T 600      -0.876   1.426  -3.147  1.00 15.99     0.026 A 
ENDBRANCH   1  10
TORSDOF 2
ENDMDL
MODEL 7
REMARK VINA RESULT:      -6.6      1.931      2.649
REMARK  2 active torsions:
REMARK  status: ('A' for Active; 'I' for Inactive)
REMARK    1  A    between atoms: C5_4  and  O7_13 
REMARK    2  A    between atoms: C8_10  and  O7_13 
ROOT
HETATM    1  O7    D T 600      -2.588   3.221  -5.473  1.00 18.03    -0.309 OA
ENDROOT
BRANCH   1   2
HETATM    2  C5    D T 600      -1.947   3.099  -6.717  1.00 18.33     0.099 A 
HETATM    3  C6    D T 600      -0.497   2.834  -6.855  1.00 17.53     0.132 A 
HETATM    4  C1    D T 600       0.127   2.723  -8.172  1.00 16.53     0.089 A 
HETATM    5  O17   D T 600       0.303   2.689  -5.741  1.00 20.49    -0.193 OA
HETATM    6  C2    D T 600      -0.709   2.878  -9.343  1.00 14.58     0.020 A 
HETATM    7  C3    D T 600      -2.139   3.139  -9.215  1.00 14.14     0.041 A 
HETATM    8 CL14   D T 600      -0.070   2.757 -10.875  1.00  1.00    -0.091 Cl
HETATM    9  C4    D T 600      -2.755   3.248  -7.901  1.00 16.13     0.059 A 
ENDBRANCH   1   2
BRANCH   1  10
HETATM   10  C8    D T 600      -3.107   2.086  -4.745  1.00 16.10     0.106 A 
HETATM   11  C9    D T 600      -4.648   1.905  -4.788  1.00 14.15     0.063 A 
HETATM   12  C10   D T 600      -5.255   0.797  -4.071  1.00 14.71     0.078 A 
HETATM   13 CL16   D T 600      -5.626   2.966  -5.631  1.00  1.00    -0.085 Cl
HETATM   14  C11   D T 600      -4.329  -0.132  -3.315  1.00 14.35     0.041 A 
HETATM   15  C12   D T 600      -2.940   0.088  -3.326  1.00 18.52     0.009 A 
HETATM   16 CL15   D T 600      -5.055  -1.401  -2.481  1.00  1.63    -0.087 Cl
HETATM   17  C13   D T 600      -2.312   1.103  -3.973  1.00 15.99     0.026 A 
ENDBRANCH   1  10
TORSDOF 2
ENDMDL
MODEL 8
REMARK VINA RESULT:      -6.4      8.575      9.738
REMARK  2 active torsions:
REMARK  status: ('A' for Active; 'I' for Inactive)
REMARK    1  A    between atoms: C5_4  and  O7_13 
REMARK    2  A    between atoms: C8_10  and  O7_13 
ROOT
HETATM    1  O7    D T 600     -10.716   4.032  -9.554  1.00 18.03    -0.309 OA
ENDROOT
BRANCH   1   2
HETATM    2  C5    D T 600     -10.179   4.912 -10.510  1.00 18.33     0.099 A 
HETATM    3  C6    D T 600     -10.809   5.151 -11.829  1.00 17.53     0.132 A 
HETATM    4  C1    D T 600     -10.211   6.070 -12.794  1.00 16.53     0.089 A 
HETATM    5  O17   D T 600     -11.978   4.508 -12.181  1.00 20.49    -0.193 OA
HETATM    6  C2    D T 600      -8.982   6.744 -12.431  1.00 14.58     0.020 A 
HETATM    7  C3    D T 600      -8.356   6.513 -11.133  1.00 14.14     0.041 A 
HETATM    8 CL14   D T 600      -8.247   7.810 -13.476  1.00  1.00    -0.091 Cl
HETATM    9  C4    D T 600      -8.957   5.598 -10.175  1.00 16.13     0.059 A 
ENDBRANCH   1   2
BRANCH   1  10
HETATM   10  C8    D T 600     -10.791   4.356  -8.149  1.00 16.10     0.106 A 
HETATM   11  C9    D T 600     -11.809   5.463  -7.766  1.00 14.15     0.063 A 
HETATM   12  C10   D T 600     -11.940   5.862  -6.375  1.00 14.71     0.078 A 
HETATM   13 CL16   D T 600     -12.752   6.217  -8.923  1.00  1.00    -0.085 Cl
HETATM   14  C11   D T 600     -11.059   5.156  -5.366  1.00 14.35     0.041 A 
HETATM   15  C12   D T 600     -10.163   4.157  -5.783  1.00 18.52     0.009 A 
HETATM   16 CL15   D T 600     -11.216   5.643  -3.762  1.00  1.63    -0.087 Cl
HETATM   17  C13   D T 600      -9.992   3.741  -7.064  1.00 15.99     0.026 A 
ENDBRANCH   1  10
TORSDOF 2
ENDMDL
MODEL 9
REMARK VINA RESULT:      -6.3      7.733     10.322
REMARK  2 active torsions:
REMARK  status: ('A' for Active; 'I' for Inactive)
REMARK    1  A    between atoms: C5_4  and  O7_13 
REMARK    2  A    between atoms: C8_10  and  O7_13 
ROOT
HETATM    1  O7    D T 600      -8.723   6.005  -9.313  1.00 18.03    -0.309 OA
ENDROOT
BRANCH   1   2
HETATM    2  C5    D T 600      -8.907   6.806  -8.172  1.00 18.33     0.099 A 
HETATM    3  C6    D T 600     -10.184   7.488  -7.865  1.00 17.53     0.132 A 
HETATM    4  C1    D T 600     -10.327   8.317  -6.669  1.00 16.53     0.089 A 
HETATM    5  O17   D T 600     -11.273   7.362  -8.702  1.00 20.49    -0.193 OA
HETATM    6  C2    D T 600      -9.186   8.455  -5.789  1.00 14.58     0.020 A 
HETATM    7  C3    D T 600      -7.924   7.785  -6.087  1.00 14.14     0.041 A 
HETATM    8 CL14   D T 600      -9.276   9.376  -4.406  1.00  1.00    -0.091 Cl
HETATM    9  C4    D T 600      -7.788   6.960  -7.278  1.00 16.13     0.059 A 
ENDBRANCH   1   2
BRANCH   1  10
HETATM   10  C8    D T 600      -8.424   6.555 -10.615  1.00 16.10     0.106 A 
HETATM   11  C9    D T 600      -6.932   6.509 -11.039  1.00 14.15     0.063 A 
HETATM   12  C10   D T 600      -6.541   7.054 -12.328  1.00 14.71     0.078 A 
HETATM   13 CL16   D T 600      -5.762   5.857 -10.039  1.00  1.00    -0.085 Cl
HETATM   14  C11   D T 600      -7.635   7.642 -13.194  1.00 14.35     0.041 A 
HETATM   15  C12   D T 600      -8.968   7.643 -12.748  1.00 18.52     0.009 A 
HETATM   16 CL15   D T 600      -7.158   8.280 -14.677  1.00  1.63    -0.087 Cl
HETATM   17  C13   D T 600      -9.398   7.152 -11.557  1.00 15.99     0.026 A 
ENDBRANCH   1  10
TORSDOF 2
ENDMDL
