MODEL 1
REMARK VINA RESULT:    -6.589      0.000      0.000
REMARK INTER + INTRA:         -10.137
REMARK INTER:                  -9.670
REMARK INTRA:                  -0.467
REMARK UNBOUND:                -0.467
REMARK  8 active torsions:
REMARK  status: ('A' for Active; 'I' for Inactive)
REMARK       I    between atoms: N1_3  and  C1_4 
REMARK    1  A    between atoms: C1_4  and  C2_5 
REMARK    2  A    between atoms: C2_5  and  C3_6 
REMARK    3  A    between atoms: C3_6  and  C4_7 
REMARK    4  A    between atoms: C4_7  and  C5_8 
REMARK    5  A    between atoms: C5_8  and  C6_9 
REMARK    6  A    between atoms: C6_9  and  C7_10 
REMARK    7  A    between atoms: C7_10  and  C8_11 
REMARK       I    between atoms: C8_11  and  N2_13 
REMARK    8  A    between atoms: N2_13  and  C9_14 
ROOT
HETATM    1  C7    D T 709      -4.897   5.150  -8.123  1.00 18.21     0.090 C 
ENDROOT
BRANCH   1   2
HETATM    2  C6    D T 709      -4.691   3.751  -8.717  1.00 17.15     0.010 C 
BRANCH   2   3
HETATM    3  C5    D T 709      -3.359   3.171  -8.240  1.00 15.63     0.001 C 
BRANCH   3   4
HETATM    4  C4    D T 709      -2.257   3.172  -9.291  1.00 16.20     0.001 C 
BRANCH   4   5
HETATM    5  C3    D T 709      -0.923   2.807  -8.764  1.00 14.61     0.010 C 
BRANCH   5   6
HETATM    6  C2    D T 709       0.223   2.617  -9.802  1.00 13.57     0.092 C 
BRANCH   6   7
HETATM    7  C1    D T 709       1.038   1.373  -9.503  1.00 14.38     0.281 C 
HETATM    8  O2    D T 709       1.379   0.588 -10.427  1.00 12.30    -0.268 OA
HETATM    9  N1    D T 709       1.280   1.116  -8.273  1.00 13.37    -0.058 NA
HETATM   10  O1    D T 709       2.004  -0.045  -7.947  1.00 12.94    -0.058 OA
ENDBRANCH   6   7
ENDBRANCH   5   6
ENDBRANCH   4   5
ENDBRANCH   3   4
ENDBRANCH   2   3
ENDBRANCH   1   2
BRANCH   1  11
HETATM   11  C8    D T 709      -6.002   5.854  -8.901  1.00 17.22     0.256 C 
HETATM   12  O3    D T 709      -6.828   6.568  -8.303  1.00 17.18    -0.270 OA
HETATM   13  N2    D T 709      -5.977   5.602 -10.210  1.00 15.58    -0.212 NA
BRANCH  13  14
HETATM   14  C9    D T 709      -6.724   6.148 -11.177  1.00 14.68     0.084 A 
HETATM   15  C10   D T 709      -8.008   5.778 -11.531  1.00 14.14     0.019 A 
HETATM   16  C11   D T 709      -8.712   6.442 -12.503  1.00 14.33     0.002 A 
HETATM   17  C12   D T 709      -8.240   7.500 -13.195  1.00 14.18     0.000 A 
HETATM   18  C13   D T 709      -6.919   7.885 -12.894  1.00 14.54     0.002 A 
HETATM   19  C14   D T 709      -6.172   7.163 -11.948  1.00 15.02     0.019 A 
ENDBRANCH  13  14
ENDBRANCH   1  11
TORSDOF 8
ENDMDL
MODEL 2
REMARK VINA RESULT:    -6.269      4.621      5.580
REMARK INTER + INTRA:          -9.667
REMARK INTER:                  -8.795
REMARK INTRA:                  -0.872
REMARK UNBOUND:                -0.467
REMARK  8 active torsions:
REMARK  status: ('A' for Active; 'I' for Inactive)
REMARK       I    between atoms: N1_3  and  C1_4 
REMARK    1  A    between atoms: C1_4  and  C2_5 
REMARK    2  A    between atoms: C2_5  and  C3_6 
REMARK    3  A    between atoms: C3_6  and  C4_7 
REMARK    4  A    between atoms: C4_7  and  C5_8 
REMARK    5  A    between atoms: C5_8  and  C6_9 
REMARK    6  A    between atoms: C6_9  and  C7_10 
REMARK    7  A    between atoms: C7_10  and  C8_11 
REMARK       I    between atoms: C8_11  and  N2_13 
REMARK    8  A    between atoms: N2_13  and  C9_14 
ROOT
HETATM    1  C7    D T 709      -5.541   5.143  -7.916  1.00 18.21     0.090 C 
ENDROOT
BRANCH   1   2
HETATM    2  C6    D T 709      -4.660   4.236  -8.782  1.00 17.15     0.010 C 
BRANCH   2   3
HETATM    3  C5    D T 709      -4.625   2.824  -8.194  1.00 15.63     0.001 C 
BRANCH   3   4
HETATM    4  C4    D T 709      -4.601   2.775  -6.673  1.00 16.20     0.001 C 
BRANCH   4   5
HETATM    5  C3    D T 709      -5.558   1.809  -6.087  1.00 14.61     0.010 C 
BRANCH   5   6
HETATM    6  C2    D T 709      -6.928   1.640  -6.809  1.00 13.57     0.092 C 
BRANCH   6   7
HETATM    7  C1    D T 709      -8.012   2.459  -6.132  1.00 14.38     0.281 C 
HETATM    8  O2    D T 709      -8.231   2.342  -4.897  1.00 12.30    -0.268 OA
HETATM    9  N1    D T 709      -8.741   3.195  -6.882  1.00 13.37    -0.058 NA
HETATM   10  O1    D T 709      -9.779   3.946  -6.302  1.00 12.94    -0.058 OA
ENDBRANCH   6   7
ENDBRANCH   5   6
ENDBRANCH   4   5
ENDBRANCH   3   4
ENDBRANCH   2   3
ENDBRANCH   1   2
BRANCH   1  11
HETATM   11  C8    D T 709      -6.490   5.916  -8.824  1.00 17.22     0.256 C 
HETATM   12  O3    D T 709      -7.372   6.643  -8.329  1.00 17.18    -0.270 OA
HETATM   13  N2    D T 709      -6.275   5.706 -10.122  1.00 15.58    -0.212 NA
BRANCH  13  14
HETATM   14  C9    D T 709      -6.848   6.313 -11.169  1.00 14.68     0.084 A 
HETATM   15  C10   D T 709      -8.155   6.165 -11.591  1.00 14.14     0.019 A 
HETATM   16  C11   D T 709      -8.662   6.879 -12.646  1.00 14.33     0.002 A 
HETATM   17  C12   D T 709      -7.959   7.780 -13.363  1.00 14.18     0.000 A 
HETATM   18  C13   D T 709      -6.608   7.932 -12.993  1.00 14.54     0.002 A 
HETATM   19  C14   D T 709      -6.069   7.152 -11.956  1.00 15.02     0.019 A 
ENDBRANCH  13  14
ENDBRANCH   1  11
TORSDOF 8
ENDMDL
MODEL 3
REMARK VINA RESULT:    -6.248      6.576      8.927
REMARK INTER + INTRA:          -9.637
REMARK INTER:                  -8.931
REMARK INTRA:                  -0.706
REMARK UNBOUND:                -0.467
REMARK  8 active torsions:
REMARK  status: ('A' for Active; 'I' for Inactive)
REMARK       I    between atoms: N1_3  and  C1_4 
REMARK    1  A    between atoms: C1_4  and  C2_5 
REMARK    2  A    between atoms: C2_5  and  C3_6 
REMARK    3  A    between atoms: C3_6  and  C4_7 
REMARK    4  A    between atoms: C4_7  and  C5_8 
REMARK    5  A    between atoms: C5_8  and  C6_9 
REMARK    6  A    between atoms: C6_9  and  C7_10 
REMARK    7  A    between atoms: C7_10  and  C8_11 
REMARK       I    between atoms: C8_11  and  N2_13 
REMARK    8  A    between atoms: N2_13  and  C9_14 
ROOT
HETATM    1  C7    D T 709       0.142   2.360  -4.117  1.00 18.21     0.090 C 
ENDROOT
BRANCH   1   2
HETATM    2  C6    D T 709      -1.051   2.116  -3.184  1.00 17.15     0.010 C 
BRANCH   2   3
HETATM    3  C5    D T 709      -0.779   0.901  -2.296  1.00 15.63     0.001 C 
BRANCH   3   4
HETATM    4  C4    D T 709      -2.028   0.255  -1.712  1.00 16.20     0.001 C 
BRANCH   4   5
HETATM    5  C3    D T 709      -2.803  -0.546  -2.687  1.00 14.61     0.010 C 
BRANCH   5   6
HETATM    6  C2    D T 709      -4.342  -0.642  -2.464  1.00 13.57     0.092 C 
BRANCH   6   7
HETATM    7  C1    D T 709      -5.099   0.170  -3.498  1.00 14.38     0.281 C 
HETATM    8  O2    D T 709      -6.327  -0.027  -3.699  1.00 12.30    -0.268 OA
HETATM    9  N1    D T 709      -4.420   0.989  -4.209  1.00 13.37    -0.058 NA
HETATM   10  O1    D T 709      -5.076   1.740  -5.201  1.00 12.94    -0.058 OA
ENDBRANCH   6   7
ENDBRANCH   5   6
ENDBRANCH   4   5
ENDBRANCH   3   4
ENDBRANCH   2   3
ENDBRANCH   1   2
BRANCH   1  11
HETATM   11  C8    D T 709      -0.172   1.758  -5.481  1.00 17.22     0.256 C 
HETATM   12  O3    D T 709      -1.294   1.265  -5.702  1.00 17.18    -0.270 OA
HETATM   13  N2    D T 709       0.851   1.807  -6.335  1.00 15.58    -0.212 NA
BRANCH  13  14
HETATM   14  C9    D T 709       0.869   1.476  -7.632  1.00 14.68     0.084 A 
HETATM   15  C10   D T 709       1.382   0.314  -8.175  1.00 14.14     0.019 A 
HETATM   16  C11   D T 709       1.300   0.044  -9.517  1.00 14.33     0.002 A 
HETATM   17  C12   D T 709       0.723   0.860 -10.424  1.00 14.18     0.000 A 
HETATM   18  C13   D T 709       0.224   2.076  -9.918  1.00 14.54     0.002 A 
HETATM   19  C14   D T 709       0.368   2.385  -8.555  1.00 15.02     0.019 A 
ENDBRANCH  13  14
ENDBRANCH   1  11
TORSDOF 8
ENDMDL
MODEL 4
REMARK VINA RESULT:    -6.212      4.976      7.691
REMARK INTER + INTRA:          -9.584
REMARK INTER:                  -8.898
REMARK INTRA:                  -0.686
REMARK UNBOUND:                -0.467
REMARK  8 active torsions:
REMARK  status: ('A' for Active; 'I' for Inactive)
REMARK       I    between atoms: N1_3  and  C1_4 
REMARK    1  A    between atoms: C1_4  and  C2_5 
REMARK    2  A    between atoms: C2_5  and  C3_6 
REMARK    3  A    between atoms: C3_6  and  C4_7 
REMARK    4  A    between atoms: C4_7  and  C5_8 
REMARK    5  A    between atoms: C5_8  and  C6_9 
REMARK    6  A    between atoms: C6_9  and  C7_10 
REMARK    7  A    between atoms: C7_10  and  C8_11 
REMARK       I    between atoms: C8_11  and  N2_13 
REMARK    8  A    between atoms: N2_13  and  C9_14 
ROOT
HETATM    1  C7    D T 709      -6.229   1.950  -6.906  1.00 18.21     0.090 C 
ENDROOT
BRANCH   1   2
HETATM    2  C6    D T 709      -4.738   2.308  -6.935  1.00 17.15     0.010 C 
BRANCH   2   3
HETATM    3  C5    D T 709      -4.438   3.201  -8.141  1.00 15.63     0.001 C 
BRANCH   3   4
HETATM    4  C4    D T 709      -3.042   3.027  -8.724  1.00 16.20     0.001 C 
BRANCH   4   5
HETATM    5  C3    D T 709      -1.953   3.192  -7.736  1.00 14.61     0.010 C 
BRANCH   5   6
HETATM    6  C2    D T 709      -0.554   2.622  -8.118  1.00 13.57     0.092 C 
BRANCH   6   7
HETATM    7  C1    D T 709       0.045   1.820  -6.978  1.00 14.38     0.281 C 
HETATM    8  O2    D T 709       0.833   0.865  -7.206  1.00 12.30    -0.268 OA
HETATM    9  N1    D T 709      -0.355   2.100  -5.796  1.00 13.37    -0.058 NA
HETATM   10  O1    D T 709       0.149   1.361  -4.711  1.00 12.94    -0.058 OA
ENDBRANCH   6   7
ENDBRANCH   5   6
ENDBRANCH   4   5
ENDBRANCH   3   4
ENDBRANCH   2   3
ENDBRANCH   1   2
BRANCH   1  11
HETATM   11  C8    D T 709      -6.545   1.279  -5.575  1.00 17.22     0.256 C 
HETATM   12  O3    D T 709      -7.691   0.845  -5.352  1.00 17.18    -0.270 OA
HETATM   13  N2    D T 709      -5.510   1.244  -4.736  1.00 15.58    -0.212 NA
BRANCH  13  14
HETATM   14  C9    D T 709      -5.421   0.631  -3.549  1.00 14.68     0.084 A 
HETATM   15  C10   D T 709      -4.970  -0.655  -3.321  1.00 14.14     0.019 A 
HETATM   16  C11   D T 709      -4.863  -1.172  -2.055  1.00 14.33     0.002 A 
HETATM   17  C12   D T 709      -5.176  -0.498  -0.929  1.00 14.18     0.000 A 
HETATM   18  C13   D T 709      -5.680   0.804  -1.119  1.00 14.54     0.002 A 
HETATM   19  C14   D T 709      -5.854   1.310  -2.418  1.00 15.02     0.019 A 
ENDBRANCH  13  14
ENDBRANCH   1  11
TORSDOF 8
ENDMDL
MODEL 5
REMARK VINA RESULT:    -6.209      5.629      8.054
REMARK INTER + INTRA:          -9.579
REMARK INTER:                  -8.957
REMARK INTRA:                  -0.622
REMARK UNBOUND:                -0.467
REMARK  8 active torsions:
REMARK  status: ('A' for Active; 'I' for Inactive)
REMARK       I    between atoms: N1_3  and  C1_4 
REMARK    1  A    between atoms: C1_4  and  C2_5 
REMARK    2  A    between atoms: C2_5  and  C3_6 
REMARK    3  A    between atoms: C3_6  and  C4_7 
REMARK    4  A    between atoms: C4_7  and  C5_8 
REMARK    5  A    between atoms: C5_8  and  C6_9 
REMARK    6  A    between atoms: C6_9  and  C7_10 
REMARK    7  A    between atoms: C7_10  and  C8_11 
REMARK       I    between atoms: C8_11  and  N2_13 
REMARK    8  A    between atoms: N2_13  and  C9_14 
ROOT
HETATM    1  C7    D T 709       0.004   1.796  -5.109  1.00 18.21     0.090 C 
ENDROOT
BRANCH   1   2
HETATM    2  C6    D T 709      -0.722   1.631  -6.449  1.00 17.15     0.010 C 
BRANCH   2   3
HETATM    3  C5    D T 709      -0.823   2.982  -7.160  1.00 15.63     0.001 C 
BRANCH   3   4
HETATM    4  C4    D T 709      -1.705   2.978  -8.401  1.00 16.20     0.001 C 
BRANCH   4   5
HETATM    5  C3    D T 709      -0.953   3.055  -9.673  1.00 14.61     0.010 C 
BRANCH   5   6
HETATM    6  C2    D T 709       0.579   2.780  -9.611  1.00 13.57     0.092 C 
BRANCH   6   7
HETATM    7  C1    D T 709       0.886   1.313  -9.848  1.00 14.38     0.281 C 
HETATM    8  O2    D T 709       0.608   0.766 -10.948  1.00 12.30    -0.268 OA
HETATM    9  N1    D T 709       1.351   0.648  -8.859  1.00 13.37    -0.058 NA
HETATM   10  O1    D T 709       1.619  -0.723  -9.024  1.00 12.94    -0.058 OA
ENDBRANCH   6   7
ENDBRANCH   5   6
ENDBRANCH   4   5
ENDBRANCH   3   4
ENDBRANCH   2   3
ENDBRANCH   1   2
BRANCH   1  11
HETATM   11  C8    D T 709      -0.993   1.569  -3.980  1.00 17.22     0.256 C 
HETATM   12  O3    D T 709      -0.957   2.285  -2.961  1.00 17.18    -0.270 OA
HETATM   13  N2    D T 709      -1.833   0.559  -4.205  1.00 15.58    -0.212 NA
BRANCH  13  14
HETATM   14  C9    D T 709      -2.890   0.177  -3.478  1.00 14.68     0.084 A 
HETATM   15  C10   D T 709      -2.886  -0.733  -2.438  1.00 14.14     0.019 A 
HETATM   16  C11   D T 709      -4.017  -1.014  -1.715  1.00 14.33     0.002 A 
HETATM   17  C12   D T 709      -5.221  -0.445  -1.935  1.00 14.18     0.000 A 
HETATM   18  C13   D T 709      -5.279   0.459  -3.014  1.00 14.54     0.002 A 
HETATM   19  C14   D T 709      -4.138   0.696  -3.798  1.00 15.02     0.019 A 
ENDBRANCH  13  14
ENDBRANCH   1  11
TORSDOF 8
ENDMDL
MODEL 6
REMARK VINA RESULT:    -6.191      3.089      3.526
REMARK INTER + INTRA:          -9.553
REMARK INTER:                  -8.921
REMARK INTRA:                  -0.632
REMARK UNBOUND:                -0.467
REMARK  8 active torsions:
REMARK  status: ('A' for Active; 'I' for Inactive)
REMARK       I    between atoms: N1_3  and  C1_4 
REMARK    1  A    between atoms: C1_4  and  C2_5 
REMARK    2  A    between atoms: C2_5  and  C3_6 
REMARK    3  A    between atoms: C3_6  and  C4_7 
REMARK    4  A    between atoms: C4_7  and  C5_8 
REMARK    5  A    between atoms: C5_8  and  C6_9 
REMARK    6  A    between atoms: C6_9  and  C7_10 
REMARK    7  A    between atoms: C7_10  and  C8_11 
REMARK       I    between atoms: C8_11  and  N2_13 
REMARK    8  A    between atoms: N2_13  and  C9_14 
ROOT
HETATM    1  C7    D T 709      -5.773   5.039  -8.048  1.00 18.21     0.090 C 
ENDROOT
BRANCH   1   2
HETATM    2  C6    D T 709      -4.694   4.359  -8.900  1.00 17.15     0.010 C 
BRANCH   2   3
HETATM    3  C5    D T 709      -4.275   3.037  -8.254  1.00 15.63     0.001 C 
BRANCH   3   4
HETATM    4  C4    D T 709      -5.311   2.438  -7.313  1.00 16.20     0.001 C 
BRANCH   4   5
HETATM    5  C3    D T 709      -4.766   2.033  -5.998  1.00 14.61     0.010 C 
BRANCH   5   6
HETATM    6  C2    D T 709      -3.275   2.379  -5.710  1.00 13.57     0.092 C 
BRANCH   6   7
HETATM    7  C1    D T 709      -2.657   1.389  -4.740  1.00 14.38     0.281 C 
HETATM    8  O2    D T 709      -1.420   1.148  -4.766  1.00 12.30    -0.268 OA
HETATM    9  N1    D T 709      -3.454   0.753  -3.968  1.00 13.37    -0.058 NA
HETATM   10  O1    D T 709      -2.929  -0.198  -3.076  1.00 12.94    -0.058 OA
ENDBRANCH   6   7
ENDBRANCH   5   6
ENDBRANCH   4   5
ENDBRANCH   3   4
ENDBRANCH   2   3
ENDBRANCH   1   2
BRANCH   1  11
HETATM   11  C8    D T 709      -6.685   5.843  -8.966  1.00 17.22     0.256 C 
HETATM   12  O3    D T 709      -7.596   6.542  -8.483  1.00 17.18    -0.270 OA
HETATM   13  N2    D T 709      -6.410   5.690 -10.261  1.00 15.58    -0.212 NA
BRANCH  13  14
HETATM   14  C9    D T 709      -6.939   6.337 -11.307  1.00 14.68     0.084 A 
HETATM   15  C10   D T 709      -8.245   6.253 -11.749  1.00 14.14     0.019 A 
HETATM   16  C11   D T 709      -8.704   7.004 -12.801  1.00 14.33     0.002 A 
HETATM   17  C12   D T 709      -7.951   7.883 -13.494  1.00 14.18     0.000 A 
HETATM   18  C13   D T 709      -6.600   7.970 -13.102  1.00 14.54     0.002 A 
HETATM   19  C14   D T 709      -6.112   7.151 -12.070  1.00 15.02     0.019 A 
ENDBRANCH  13  14
ENDBRANCH   1  11
TORSDOF 8
ENDMDL
MODEL 7
REMARK VINA RESULT:    -6.163      6.046      7.806
REMARK INTER + INTRA:          -9.512
REMARK INTER:                  -8.523
REMARK INTRA:                  -0.989
REMARK UNBOUND:                -0.467
REMARK  8 active torsions:
REMARK  status: ('A' for Active; 'I' for Inactive)
REMARK       I    between atoms: N1_3  and  C1_4 
REMARK    1  A    between atoms: C1_4  and  C2_5 
REMARK    2  A    between atoms: C2_5  and  C3_6 
REMARK    3  A    between atoms: C3_6  and  C4_7 
REMARK    4  A    between atoms: C4_7  and  C5_8 
REMARK    5  A    between atoms: C5_8  and  C6_9 
REMARK    6  A    between atoms: C6_9  and  C7_10 
REMARK    7  A    between atoms: C7_10  and  C8_11 
REMARK       I    between atoms: C8_11  and  N2_13 
REMARK    8  A    between atoms: N2_13  and  C9_14 
ROOT
HETATM    1  C7    D T 709      -5.840  -0.178  -1.249  1.00 18.21     0.090 C 
ENDROOT
BRANCH   1   2
HETATM    2  C6    D T 709      -4.866  -1.262  -1.725  1.00 17.15     0.010 C 
BRANCH   2   3
HETATM    3  C5    D T 709      -3.598  -1.237  -0.869  1.00 15.63     0.001 C 
BRANCH   3   4
HETATM    4  C4    D T 709      -2.792   0.050  -0.973  1.00 16.20     0.001 C 
BRANCH   4   5
HETATM    5  C3    D T 709      -2.043   0.191  -2.242  1.00 14.61     0.010 C 
BRANCH   5   6
HETATM    6  C2    D T 709      -0.856   1.200  -2.259  1.00 13.57     0.092 C 
BRANCH   6   7
HETATM    7  C1    D T 709      -0.384   1.472  -3.675  1.00 14.38     0.281 C 
HETATM    8  O2    D T 709       0.581   2.252  -3.894  1.00 12.30    -0.268 OA
HETATM    9  N1    D T 709      -1.062   0.951  -4.626  1.00 13.37    -0.058 NA
HETATM   10  O1    D T 709      -0.681   1.203  -5.956  1.00 12.94    -0.058 OA
ENDBRANCH   6   7
ENDBRANCH   5   6
ENDBRANCH   4   5
ENDBRANCH   3   4
ENDBRANCH   2   3
ENDBRANCH   1   2
BRANCH   1  11
HETATM   11  C8    D T 709      -6.000   0.857  -2.356  1.00 17.22     0.256 C 
HETATM   12  O3    D T 709      -6.463   1.984  -2.095  1.00 17.18    -0.270 OA
HETATM   13  N2    D T 709      -5.626   0.416  -3.557  1.00 15.58    -0.212 NA
BRANCH  13  14
HETATM   14  C9    D T 709      -5.531   1.101  -4.703  1.00 14.68     0.084 A 
HETATM   15  C10   D T 709      -4.404   1.734  -5.191  1.00 14.14     0.019 A 
HETATM   16  C11   D T 709      -4.396   2.364  -6.409  1.00 14.33     0.002 A 
HETATM   17  C12   D T 709      -5.458   2.428  -7.239  1.00 14.18     0.000 A 
HETATM   18  C13   D T 709      -6.641   1.831  -6.762  1.00 14.54     0.002 A 
HETATM   19  C14   D T 709      -6.670   1.245  -5.485  1.00 15.02     0.019 A 
ENDBRANCH  13  14
ENDBRANCH   1  11
TORSDOF 8
ENDMDL
MODEL 8
REMARK VINA RESULT:    -6.131      4.140      7.126
REMARK INTER + INTRA:          -9.465
REMARK INTER:                  -8.884
REMARK INTRA:                  -0.581
REMARK UNBOUND:                -0.467
REMARK  8 active torsions:
REMARK  status: ('A' for Active; 'I' for Inactive)
REMARK       I    between atoms: N1_3  and  C1_4 
REMARK    1  A    between atoms: C1_4  and  C2_5 
REMARK    2  A    between atoms: C2_5  and  C3_6 
REMARK    3  A    between atoms: C3_6  and  C4_7 
REMARK    4  A    between atoms: C4_7  and  C5_8 
REMARK    5  A    between atoms: C5_8  and  C6_9 
REMARK    6  A    between atoms: C6_9  and  C7_10 
REMARK    7  A    between atoms: C7_10  and  C8_11 
REMARK       I    between atoms: C8_11  and  N2_13 
REMARK    8  A    between atoms: N2_13  and  C9_14 
ROOT
HETATM    1  C7    D T 709      -5.196   2.236  -6.802  1.00 18.21     0.090 C 
ENDROOT
BRANCH   1   2
HETATM    2  C6    D T 709      -5.232   3.562  -7.571  1.00 17.15     0.010 C 
BRANCH   2   3
HETATM    3  C5    D T 709      -3.807   4.024  -7.883  1.00 15.63     0.001 C 
BRANCH   3   4
HETATM    4  C4    D T 709      -3.168   3.334  -9.081  1.00 16.20     0.001 C 
BRANCH   4   5
HETATM    5  C3    D T 709      -1.728   3.039  -8.906  1.00 14.61     0.010 C 
BRANCH   5   6
HETATM    6  C2    D T 709      -0.832   3.099 -10.179  1.00 13.57     0.092 C 
BRANCH   6   7
HETATM    7  C1    D T 709       0.346   2.148 -10.068  1.00 14.38     0.281 C 
HETATM    8  O2    D T 709       0.885   1.667 -11.101  1.00 12.30    -0.268 OA
HETATM    9  N1    D T 709       0.700   1.793  -8.892  1.00 13.37    -0.058 NA
HETATM   10  O1    D T 709       1.766   0.887  -8.743  1.00 12.94    -0.058 OA
ENDBRANCH   6   7
ENDBRANCH   5   6
ENDBRANCH   4   5
ENDBRANCH   3   4
ENDBRANCH   2   3
ENDBRANCH   1   2
BRANCH   1  11
HETATM   11  C8    D T 709      -4.269   2.389  -5.603  1.00 17.22     0.256 C 
HETATM   12  O3    D T 709      -4.665   2.978  -4.580  1.00 17.18    -0.270 OA
HETATM   13  N2    D T 709      -3.058   1.865  -5.794  1.00 15.58    -0.212 NA
BRANCH  13  14
HETATM   14  C9    D T 709      -2.061   1.730  -4.911  1.00 14.68     0.084 A 
HETATM   15  C10   D T 709      -2.098   1.004  -3.736  1.00 14.14     0.019 A 
HETATM   16  C11   D T 709      -0.999   0.881  -2.925  1.00 14.33     0.002 A 
HETATM   17  C12   D T 709       0.203   1.437  -3.183  1.00 14.18     0.000 A 
HETATM   18  C13   D T 709       0.273   2.221  -4.352  1.00 14.54     0.002 A 
HETATM   19  C14   D T 709      -0.870   2.404  -5.147  1.00 15.02     0.019 A 
ENDBRANCH  13  14
ENDBRANCH   1  11
TORSDOF 8
ENDMDL
MODEL 9
REMARK VINA RESULT:    -6.095      5.398      7.896
REMARK INTER + INTRA:          -9.412
REMARK INTER:                  -8.452
REMARK INTRA:                  -0.961
REMARK UNBOUND:                -0.467
REMARK  8 active torsions:
REMARK  status: ('A' for Active; 'I' for Inactive)
REMARK       I    between atoms: N1_3  and  C1_4 
REMARK    1  A    between atoms: C1_4  and  C2_5 
REMARK    2  A    between atoms: C2_5  and  C3_6 
REMARK    3  A    between atoms: C3_6  and  C4_7 
REMARK    4  A    between atoms: C4_7  and  C5_8 
REMARK    5  A    between atoms: C5_8  and  C6_9 
REMARK    6  A    between atoms: C6_9  and  C7_10 
REMARK    7  A    between atoms: C7_10  and  C8_11 
REMARK       I    between atoms: C8_11  and  N2_13 
REMARK    8  A    between atoms: N2_13  and  C9_14 
ROOT
HETATM    1  C7    D T 709       0.831   2.474  -5.073  1.00 18.21     0.090 C 
ENDROOT
BRANCH   1   2
HETATM    2  C6    D T 709       0.197   2.644  -3.686  1.00 17.15     0.010 C 
BRANCH   2   3
HETATM    3  C5    D T 709       0.239   1.317  -2.927  1.00 15.63     0.001 C 
BRANCH   3   4
HETATM    4  C4    D T 709      -1.099   0.879  -2.346  1.00 16.20     0.001 C 
BRANCH   4   5
HETATM    5  C3    D T 709      -2.162   0.690  -3.359  1.00 14.61     0.010 C 
BRANCH   5   6
HETATM    6  C2    D T 709      -3.637   0.794  -2.869  1.00 13.57     0.092 C 
BRANCH   6   7
HETATM    7  C1    D T 709      -3.848   0.010  -1.588  1.00 14.38     0.281 C 
HETATM    8  O2    D T 709      -3.835   0.588  -0.469  1.00 12.30    -0.268 OA
HETATM    9  N1    D T 709      -3.949  -1.261  -1.692  1.00 13.37    -0.058 NA
HETATM   10  O1    D T 709      -4.114  -2.031  -0.527  1.00 12.94    -0.058 OA
ENDBRANCH   6   7
ENDBRANCH   5   6
ENDBRANCH   4   5
ENDBRANCH   3   4
ENDBRANCH   2   3
ENDBRANCH   1   2
BRANCH   1  11
HETATM   11  C8    D T 709      -0.257   2.077  -6.063  1.00 17.22     0.256 C 
HETATM   12  O3    D T 709      -0.151   1.022  -6.717  1.00 17.18    -0.270 OA
HETATM   13  N2    D T 709      -1.253   2.960  -6.144  1.00 15.58    -0.212 NA
BRANCH  13  14
HETATM   14  C9    D T 709      -2.403   2.857  -6.822  1.00 14.68     0.084 A 
HETATM   15  C10   D T 709      -3.619   2.436  -6.317  1.00 14.14     0.019 A 
HETATM   16  C11   D T 709      -4.756   2.421  -7.083  1.00 14.33     0.002 A 
HETATM   17  C12   D T 709      -4.808   2.808  -8.375  1.00 14.18     0.000 A 
HETATM   18  C13   D T 709      -3.581   3.205  -8.942  1.00 14.54     0.002 A 
HETATM   19  C14   D T 709      -2.403   3.156  -8.178  1.00 15.02     0.019 A 
ENDBRANCH  13  14
ENDBRANCH   1  11
TORSDOF 8
ENDMDL
