MODEL 1
REMARK VINA RESULT:    -9.061      0.000      0.000
REMARK INTER + INTRA:         -23.043
REMARK INTER:                 -18.595
REMARK INTRA:                  -4.447
REMARK UNBOUND:                -4.447
REMARK  18 active torsions:
REMARK  status: ('A' for Active; 'I' for Inactive)
REMARK    1  A    between atoms: C2_2  and  C6_6 
REMARK    2  A    between atoms: C6_6  and  O7_7 
REMARK    3  A    between atoms: O7_7  and  C10_8 
REMARK       I    between atoms: C10_8  and  N11_10 
REMARK    4  A    between atoms: N11_10  and  C12_11 
REMARK    5  A    between atoms: C12_11  and  C13_12 
REMARK    6  A    between atoms: C12_11  and  C26_15 
REMARK    7  A    between atoms: C13_12  and  C14_13 
REMARK    8  A    between atoms: C14_13  and  C15_14 
REMARK    9  A    between atoms: C15_14  and  C44_23 
REMARK   10  A    between atoms: C15_14  and  N58_30 
REMARK   11  A    between atoms: C26_15  and  C28_16 
REMARK   12  A    between atoms: C44_23  and  C45_24 
REMARK       I    between atoms: N58_30  and  C18_33 
REMARK   13  A    between atoms: N20_31  and  C19_32 
REMARK       I    between atoms: N20_31  and  C21_38 
REMARK   14  A    between atoms: C19_32  and  C18_33 
REMARK   15  A    between atoms: C19_32  and  C62_35 
REMARK       I    between atoms: C21_38  and  N74_39 
REMARK   16  A    between atoms: N74_39  and  C75_40 
REMARK   17  A    between atoms: C75_40  and  C77_42 
REMARK   18  A    between atoms: C82_45  and  C85_47 
ROOT
HETATM    1  C15   D T 401      -0.562  -1.995  10.705  1.00 59.81     0.113 C 
ENDROOT
BRANCH   1   2
HETATM    2  C14   D T 401      -0.604  -0.491  11.007  1.00 58.93     0.060 C 
BRANCH   2   3
HETATM    3  C13   D T 401      -1.183   0.428   9.906  1.00 59.07     0.177 C 
HETATM    4  O41   D T 401      -0.164   0.657   8.940  1.00 58.43    -0.221 OA
BRANCH   3   5
HETATM    5  C12   D T 401      -1.683   1.792  10.391  1.00 59.52     0.143 C 
BRANCH   5   6
HETATM    6  N11   D T 401      -0.603   2.745  10.193  1.00 58.37    -0.211 NA
HETATM    7  C10   D T 401       0.048   3.197  11.251  1.00 59.08     0.384 C 
HETATM    8  O24   D T 401      -0.313   2.894  12.388  1.00 59.19    -0.236 OA
BRANCH   7   9
HETATM    9  O7    D T 401       1.219   4.043  11.071  1.00 58.33    -0.278 OA
BRANCH   9  10
HETATM   10  C6    D T 401       2.430   3.582  11.639  1.00 59.85     0.188 C 
BRANCH  10  11
HETATM   11  C2    D T 401       2.730   2.252  11.028  1.00 62.87     0.058 A 
HETATM   12  C1    D T 401       2.716   0.947  11.507  1.00 63.59     0.104 A 
HETATM   13  N5    D T 401       3.116   0.055  10.532  1.00 65.21    -0.235 NA
HETATM   14  C4    D T 401       3.446   0.581   9.316  1.00 64.03     0.134 A 
HETATM   15  S3    D T 401       3.269   2.297   9.381  1.00 63.44    -0.066 SA
ENDBRANCH  10  11
ENDBRANCH   9  10
ENDBRANCH   7   9
ENDBRANCH   5   6
BRANCH   5  16
HETATM   16  C26   D T 401      -2.987   2.304   9.743  1.00 59.99     0.053 C 
BRANCH  16  17
HETATM   17  C28   D T 401      -4.152   1.347   9.974  1.00 61.27    -0.020 A 
HETATM   18  C31   D T 401      -4.881   0.834   8.886  1.00 62.70    -0.004 A 
HETATM   19  C32   D T 401      -5.960  -0.051   9.079  1.00 62.25    -0.000 A 
HETATM   20  C33   D T 401      -6.326  -0.452  10.364  1.00 60.89    -0.000 A 
HETATM   21  C34   D T 401      -5.611   0.050  11.455  1.00 61.83    -0.000 A 
HETATM   22  C35   D T 401      -4.532   0.948  11.265  1.00 61.69    -0.004 A 
ENDBRANCH  16  17
ENDBRANCH   5  16
ENDBRANCH   3   5
ENDBRANCH   2   3
ENDBRANCH   1   2
BRANCH   1  23
HETATM   23  C44   D T 401      -1.333  -2.776  11.783  1.00 61.03     0.051 C 
BRANCH  23  24
HETATM   24  C45   D T 401      -2.537  -3.581  11.306  1.00 62.14    -0.020 A 
HETATM   25  C48   D T 401      -3.550  -2.852  10.687  1.00 62.95    -0.004 A 
HETATM   26  C49   D T 401      -4.702  -3.464  10.167  1.00 63.23    -0.000 A 
HETATM   27  C50   D T 401      -4.843  -4.846  10.259  1.00 64.66    -0.000 A 
HETATM   28  C51   D T 401      -3.831  -5.598  10.876  1.00 64.50    -0.000 A 
HETATM   29  C52   D T 401      -2.680  -4.980  11.392  1.00 63.39    -0.004 A 
ENDBRANCH  23  24
ENDBRANCH   1  23
BRANCH   1  30
HETATM   30  N58   D T 401       0.767  -2.541  10.763  1.00 60.63    -0.238 NA
HETATM   31  C18   D T 401       1.276  -3.517  10.031  1.00 62.24     0.274 C 
HETATM   32  O61   D T 401       0.753  -4.134   9.103  1.00 61.50    -0.268 OA
BRANCH  31  33
HETATM   33  C19   D T 401       2.653  -3.834  10.507  1.00 64.75     0.188 C 
BRANCH  33  34
HETATM   34  N20   D T 401       2.700  -5.215  10.939  1.00 65.69    -0.211 NA
HETATM   35  C21   D T 401       2.675  -5.512  12.212  1.00 66.79     0.343 C 
HETATM   36  N74   D T 401       3.367  -6.551  12.647  1.00 71.41    -0.294 N 
HETATM   37  O76   D T 401       2.160  -4.770  13.007  1.00 67.85    -0.245 OA
HETATM   38  C95   D T 401       4.637  -7.004  12.070  1.00 70.78     0.131 C 
BRANCH  36  39
HETATM   39  C75   D T 401       2.932  -7.302  13.813  1.00 74.33     0.152 C 
BRANCH  39  40
HETATM   40  C77   D T 401       1.983  -8.346  13.322  1.00 76.44     0.088 A 
HETATM   41  C80   D T 401       2.247  -9.721  13.333  1.00 78.25     0.053 A 
HETATM   42  S81   D T 401       0.889 -10.579  12.694  1.00 82.00    -0.070 SA
HETATM   43  C82   D T 401       0.003  -9.096  12.436  1.00 80.73     0.088 A 
HETATM   44  N83   D T 401       0.745  -8.021  12.834  1.00 78.96    -0.245 NA
BRANCH  43  45
HETATM   45  C85   D T 401      -1.365  -9.194  11.862  1.00 81.61     0.047 C 
HETATM   46  C86   D T 401      -1.483  -8.407  10.550  1.00 81.16     0.007 C 
HETATM   47  C90   D T 401      -2.387  -8.743  12.920  1.00 82.31     0.007 C 
ENDBRANCH  43  45
ENDBRANCH  39  40
ENDBRANCH  36  39
ENDBRANCH  33  34
BRANCH  33  48
HETATM   48  C62   D T 401       3.695  -3.621   9.390  1.00 64.68     0.032 C 
HETATM   49  C64   D T 401       4.901  -2.840   9.880  1.00 64.29     0.003 C 
HETATM   50  C68   D T 401       4.123  -4.939   8.748  1.00 63.77     0.003 C 
ENDBRANCH  33  48
ENDBRANCH  31  33
ENDBRANCH   1  30
TORSDOF 18
ENDMDL
MODEL 2
REMARK VINA RESULT:    -8.927      2.420      7.578
REMARK INTER + INTRA:         -22.768
REMARK INTER:                 -18.954
REMARK INTRA:                  -3.814
REMARK UNBOUND:                -4.447
REMARK  18 active torsions:
REMARK  status: ('A' for Active; 'I' for Inactive)
REMARK    1  A    between atoms: C2_2  and  C6_6 
REMARK    2  A    between atoms: C6_6  and  O7_7 
REMARK    3  A    between atoms: O7_7  and  C10_8 
REMARK       I    between atoms: C10_8  and  N11_10 
REMARK    4  A    between atoms: N11_10  and  C12_11 
REMARK    5  A    between atoms: C12_11  and  C13_12 
REMARK    6  A    between atoms: C12_11  and  C26_15 
REMARK    7  A    between atoms: C13_12  and  C14_13 
REMARK    8  A    between atoms: C14_13  and  C15_14 
REMARK    9  A    between atoms: C15_14  and  C44_23 
REMARK   10  A    between atoms: C15_14  and  N58_30 
REMARK   11  A    between atoms: C26_15  and  C28_16 
REMARK   12  A    between atoms: C44_23  and  C45_24 
REMARK       I    between atoms: N58_30  and  C18_33 
REMARK   13  A    between atoms: N20_31  and  C19_32 
REMARK       I    between atoms: N20_31  and  C21_38 
REMARK   14  A    between atoms: C19_32  and  C18_33 
REMARK   15  A    between atoms: C19_32  and  C62_35 
REMARK       I    between atoms: C21_38  and  N74_39 
REMARK   16  A    between atoms: N74_39  and  C75_40 
REMARK   17  A    between atoms: C75_40  and  C77_42 
REMARK   18  A    between atoms: C82_45  and  C85_47 
ROOT
HETATM    1  C15   D T 401      -0.455  -0.163  10.630  1.00 59.81     0.113 C 
ENDROOT
BRANCH   1   2
HETATM    2  C14   D T 401      -0.194  -1.674  10.572  1.00 58.93     0.060 C 
BRANCH   2   3
HETATM    3  C13   D T 401      -0.688  -2.517  11.772  1.00 59.07     0.177 C 
HETATM    4  O41   D T 401       0.408  -3.288  12.251  1.00 58.43    -0.221 OA
BRANCH   3   5
HETATM    5  C12   D T 401      -1.838  -3.480  11.464  1.00 59.52     0.143 C 
BRANCH   5   6
HETATM    6  N11   D T 401      -1.529  -4.745  12.111  1.00 58.37    -0.211 NA
HETATM    7  C10   D T 401      -1.386  -5.823  11.360  1.00 59.08     0.384 C 
HETATM    8  O24   D T 401      -1.604  -5.782  10.150  1.00 59.19    -0.236 OA
BRANCH   7   9
HETATM    9  O7    D T 401      -0.943  -7.070  11.967  1.00 58.33    -0.278 OA
BRANCH   9  10
HETATM   10  C6    D T 401      -1.945  -8.023  12.266  1.00 59.85     0.188 C 
BRANCH  10  11
HETATM   11  C2    D T 401      -1.301  -9.371  12.236  1.00 62.87     0.058 A 
HETATM   12  C1    D T 401      -1.206 -10.414  13.150  1.00 63.59     0.104 A 
HETATM   13  N5    D T 401      -0.456 -11.456  12.640  1.00 65.21    -0.235 NA
HETATM   14  C4    D T 401       0.046 -11.292  11.381  1.00 64.03     0.134 A 
HETATM   15  S3    D T 401      -0.421  -9.741  10.788  1.00 63.44    -0.066 SA
ENDBRANCH  10  11
ENDBRANCH   9  10
ENDBRANCH   7   9
ENDBRANCH   5   6
BRANCH   5  16
HETATM   16  C26   D T 401      -3.250  -2.996  11.860  1.00 59.99     0.053 C 
BRANCH  16  17
HETATM   17  C28   D T 401      -4.237  -3.116  10.704  1.00 61.27    -0.020 A 
HETATM   18  C31   D T 401      -4.750  -4.372  10.331  1.00 62.70    -0.004 A 
HETATM   19  C32   D T 401      -5.663  -4.504   9.266  1.00 62.25    -0.000 A 
HETATM   20  C33   D T 401      -6.092  -3.380   8.557  1.00 60.89    -0.000 A 
HETATM   21  C34   D T 401      -5.590  -2.126   8.916  1.00 61.83    -0.000 A 
HETATM   22  C35   D T 401      -4.664  -1.991   9.980  1.00 61.69    -0.004 A 
ENDBRANCH  16  17
ENDBRANCH   5  16
ENDBRANCH   3   5
ENDBRANCH   2   3
ENDBRANCH   1   2
BRANCH   1  23
HETATM   23  C44   D T 401      -1.149   0.306   9.339  1.00 61.03     0.051 C 
BRANCH  23  24
HETATM   24  C45   D T 401      -2.564   0.854   9.490  1.00 62.14    -0.020 A 
HETATM   25  C48   D T 401      -3.266   1.059   8.303  1.00 62.95    -0.004 A 
HETATM   26  C49   D T 401      -4.590   1.526   8.290  1.00 63.23    -0.000 A 
HETATM   27  C50   D T 401      -5.236   1.786   9.496  1.00 64.66    -0.000 A 
HETATM   28  C51   D T 401      -4.547   1.580  10.700  1.00 64.50    -0.000 A 
HETATM   29  C52   D T 401      -3.223   1.111  10.707  1.00 63.39    -0.004 A 
ENDBRANCH  23  24
ENDBRANCH   1  23
BRANCH   1  30
HETATM   30  N58   D T 401       0.754   0.612  10.678  1.00 60.63    -0.238 NA
HETATM   31  C18   D T 401       1.268   1.249  11.716  1.00 62.24     0.274 C 
HETATM   32  O61   D T 401       0.865   1.274  12.879  1.00 61.50    -0.268 OA
BRANCH  31  33
HETATM   33  C19   D T 401       2.471   2.017  11.286  1.00 64.75     0.188 C 
BRANCH  33  34
HETATM   34  N20   D T 401       3.344   1.147  10.526  1.00 65.69    -0.211 NA
HETATM   35  C21   D T 401       4.538   0.854  10.972  1.00 66.79     0.343 C 
HETATM   36  N74   D T 401       5.528   0.697  10.110  1.00 71.41    -0.294 N 
HETATM   37  O76   D T 401       4.778   0.876  12.151  1.00 67.85    -0.245 OA
HETATM   38  C95   D T 401       5.651   1.425   8.843  1.00 70.78     0.131 C 
BRANCH  36  39
HETATM   39  C75   D T 401       6.640  -0.193  10.405  1.00 74.33     0.152 C 
BRANCH  39  40
HETATM   40  C77   D T 401       6.064  -1.564  10.555  1.00 76.44     0.088 A 
HETATM   41  C80   D T 401       6.253  -2.382  11.675  1.00 78.25     0.053 A 
HETATM   42  S81   D T 401       5.409  -3.874  11.455  1.00 82.00    -0.070 SA
HETATM   43  C82   D T 401       4.819  -3.374   9.888  1.00 80.73     0.088 A 
HETATM   44  N83   D T 401       5.268  -2.120   9.588  1.00 78.96    -0.245 NA
BRANCH  43  45
HETATM   45  C85   D T 401       3.950  -4.318   9.138  1.00 81.61     0.047 C 
HETATM   46  C86   D T 401       2.510  -4.298   9.667  1.00 81.16     0.007 C 
HETATM   47  C90   D T 401       4.578  -5.721   9.180  1.00 82.31     0.007 C 
ENDBRANCH  43  45
ENDBRANCH  39  40
ENDBRANCH  36  39
ENDBRANCH  33  34
BRANCH  33  48
HETATM   48  C62   D T 401       2.081   3.225  10.411  1.00 64.68     0.032 C 
HETATM   49  C64   D T 401       1.000   4.071  11.060  1.00 64.29     0.003 C 
HETATM   50  C68   D T 401       3.291   4.079  10.040  1.00 63.77     0.003 C 
ENDBRANCH  33  48
ENDBRANCH  31  33
ENDBRANCH   1  30
TORSDOF 18
ENDMDL
MODEL 3
REMARK VINA RESULT:    -8.782      2.391      8.276
REMARK INTER + INTRA:         -22.470
REMARK INTER:                 -18.203
REMARK INTRA:                  -4.266
REMARK UNBOUND:                -4.447
REMARK  18 active torsions:
REMARK  status: ('A' for Active; 'I' for Inactive)
REMARK    1  A    between atoms: C2_2  and  C6_6 
REMARK    2  A    between atoms: C6_6  and  O7_7 
REMARK    3  A    between atoms: O7_7  and  C10_8 
REMARK       I    between atoms: C10_8  and  N11_10 
REMARK    4  A    between atoms: N11_10  and  C12_11 
REMARK    5  A    between atoms: C12_11  and  C13_12 
REMARK    6  A    between atoms: C12_11  and  C26_15 
REMARK    7  A    between atoms: C13_12  and  C14_13 
REMARK    8  A    between atoms: C14_13  and  C15_14 
REMARK    9  A    between atoms: C15_14  and  C44_23 
REMARK   10  A    between atoms: C15_14  and  N58_30 
REMARK   11  A    between atoms: C26_15  and  C28_16 
REMARK   12  A    between atoms: C44_23  and  C45_24 
REMARK       I    between atoms: N58_30  and  C18_33 
REMARK   13  A    between atoms: N20_31  and  C19_32 
REMARK       I    between atoms: N20_31  and  C21_38 
REMARK   14  A    between atoms: C19_32  and  C18_33 
REMARK   15  A    between atoms: C19_32  and  C62_35 
REMARK       I    between atoms: C21_38  and  N74_39 
REMARK   16  A    between atoms: N74_39  and  C75_40 
REMARK   17  A    between atoms: C75_40  and  C77_42 
REMARK   18  A    between atoms: C82_45  and  C85_47 
ROOT
HETATM    1  C15   D T 401      -0.301  -1.740  11.619  1.00 59.81     0.113 C 
ENDROOT
BRANCH   1   2
HETATM    2  C14   D T 401      -1.633  -2.161  10.984  1.00 58.93     0.060 C 
BRANCH   2   3
HETATM    3  C13   D T 401      -2.547  -3.086  11.822  1.00 59.07     0.177 C 
HETATM    4  O41   D T 401      -1.736  -3.756  12.781  1.00 58.43    -0.221 OA
BRANCH   3   5
HETATM    5  C12   D T 401      -3.306  -4.150  11.025  1.00 59.52     0.143 C 
BRANCH   5   6
HETATM    6  N11   D T 401      -3.021  -5.437  11.639  1.00 58.37    -0.211 NA
HETATM    7  C10   D T 401      -2.796  -6.478  10.857  1.00 59.08     0.384 C 
HETATM    8  O24   D T 401      -2.921  -6.387   9.636  1.00 59.19    -0.236 OA
BRANCH   7   9
HETATM    9  O7    D T 401      -2.375  -7.743  11.443  1.00 58.33    -0.278 OA
BRANCH   9  10
HETATM   10  C6    D T 401      -1.539  -7.668  12.582  1.00 59.85     0.188 C 
BRANCH  10  11
HETATM   11  C2    D T 401      -1.476  -9.037  13.178  1.00 62.87     0.058 A 
HETATM   12  C1    D T 401      -0.433  -9.891  13.521  1.00 63.59     0.104 A 
HETATM   13  N5    D T 401      -0.913 -11.087  14.016  1.00 65.21    -0.235 NA
HETATM   14  C4    D T 401      -2.270 -11.225  14.081  1.00 64.03     0.134 A 
HETATM   15  S3    D T 401      -3.010  -9.790  13.472  1.00 63.44    -0.066 SA
ENDBRANCH  10  11
ENDBRANCH   9  10
ENDBRANCH   7   9
ENDBRANCH   5   6
BRANCH   5  16
HETATM   16  C26   D T 401      -4.829  -3.936  10.891  1.00 59.99     0.053 C 
BRANCH  16  17
HETATM   17  C28   D T 401      -5.163  -2.548  10.354  1.00 61.27    -0.020 A 
HETATM   18  C31   D T 401      -5.288  -1.455  11.232  1.00 62.70    -0.004 A 
HETATM   19  C32   D T 401      -5.596  -0.165  10.756  1.00 62.25    -0.000 A 
HETATM   20  C33   D T 401      -5.775   0.062   9.390  1.00 60.89    -0.000 A 
HETATM   21  C34   D T 401      -5.655  -1.014   8.507  1.00 61.83    -0.000 A 
HETATM   22  C35   D T 401      -5.355  -2.315   8.984  1.00 61.69    -0.004 A 
ENDBRANCH  16  17
ENDBRANCH   5  16
ENDBRANCH   3   5
ENDBRANCH   2   3
ENDBRANCH   1   2
BRANCH   1  23
HETATM   23  C44   D T 401      -0.195  -0.205  11.664  1.00 61.03     0.051 C 
BRANCH  23  24
HETATM   24  C45   D T 401      -1.044   0.563  10.657  1.00 62.14    -0.020 A 
HETATM   25  C48   D T 401      -2.040   1.375  11.196  1.00 62.95    -0.004 A 
HETATM   26  C49   D T 401      -2.876   2.167  10.391  1.00 63.23    -0.000 A 
HETATM   27  C50   D T 401      -2.706   2.155   9.010  1.00 64.66    -0.000 A 
HETATM   28  C51   D T 401      -1.706   1.347   8.450  1.00 64.50    -0.000 A 
HETATM   29  C52   D T 401      -0.871   0.559   9.259  1.00 63.39    -0.004 A 
ENDBRANCH  23  24
ENDBRANCH   1  23
BRANCH   1  30
HETATM   30  N58   D T 401       0.840  -2.145  10.845  1.00 60.63    -0.238 NA
HETATM   31  C18   D T 401       1.534  -3.266  10.949  1.00 62.24     0.274 C 
HETATM   32  O61   D T 401       1.328  -4.232  11.684  1.00 61.50    -0.268 OA
BRANCH  31  33
HETATM   33  C19   D T 401       2.704  -3.218  10.025  1.00 64.75     0.188 C 
BRANCH  33  34
HETATM   34  N20   D T 401       3.366  -1.937  10.164  1.00 65.69    -0.211 NA
HETATM   35  C21   D T 401       3.435  -1.114   9.150  1.00 66.79     0.343 C 
HETATM   36  N74   D T 401       4.512  -0.362   9.001  1.00 71.41    -0.294 N 
HETATM   37  O76   D T 401       2.609  -1.144   8.276  1.00 67.85    -0.245 OA
HETATM   38  C95   D T 401       5.868  -0.764   9.391  1.00 70.78     0.131 C 
BRANCH  36  39
HETATM   39  C75   D T 401       4.430   0.938   8.355  1.00 74.33     0.152 C 
BRANCH  39  40
HETATM   40  C77   D T 401       3.920   1.896   9.381  1.00 76.44     0.088 A 
HETATM   41  C80   D T 401       4.733   2.742  10.145  1.00 78.25     0.053 A 
HETATM   42  S81   D T 401       3.750   3.696  11.200  1.00 82.00    -0.070 SA
HETATM   43  C82   D T 401       2.287   2.957  10.596  1.00 80.73     0.088 A 
HETATM   44  N83   D T 401       2.581   2.033   9.635  1.00 78.96    -0.245 NA
BRANCH  43  45
HETATM   45  C85   D T 401       0.991   3.413  11.165  1.00 81.61     0.047 C 
HETATM   46  C86   D T 401       0.378   4.546  10.333  1.00 81.16     0.007 C 
HETATM   47  C90   D T 401       1.200   3.804  12.638  1.00 82.31     0.007 C 
ENDBRANCH  43  45
ENDBRANCH  39  40
ENDBRANCH  36  39
ENDBRANCH  33  34
BRANCH  33  48
HETATM   48  C62   D T 401       3.713  -4.340  10.339  1.00 64.68     0.032 C 
HETATM   49  C64   D T 401       4.253  -4.988   9.076  1.00 64.29     0.003 C 
HETATM   50  C68   D T 401       4.852  -3.854  11.232  1.00 63.77     0.003 C 
ENDBRANCH  33  48
ENDBRANCH  31  33
ENDBRANCH   1  30
TORSDOF 18
ENDMDL
MODEL 4
REMARK VINA RESULT:    -8.560      2.962      8.234
REMARK INTER + INTRA:         -22.016
REMARK INTER:                 -18.697
REMARK INTRA:                  -3.318
REMARK UNBOUND:                -4.447
REMARK  18 active torsions:
REMARK  status: ('A' for Active; 'I' for Inactive)
REMARK    1  A    between atoms: C2_2  and  C6_6 
REMARK    2  A    between atoms: C6_6  and  O7_7 
REMARK    3  A    between atoms: O7_7  and  C10_8 
REMARK       I    between atoms: C10_8  and  N11_10 
REMARK    4  A    between atoms: N11_10  and  C12_11 
REMARK    5  A    between atoms: C12_11  and  C13_12 
REMARK    6  A    between atoms: C12_11  and  C26_15 
REMARK    7  A    between atoms: C13_12  and  C14_13 
REMARK    8  A    between atoms: C14_13  and  C15_14 
REMARK    9  A    between atoms: C15_14  and  C44_23 
REMARK   10  A    between atoms: C15_14  and  N58_30 
REMARK   11  A    between atoms: C26_15  and  C28_16 
REMARK   12  A    between atoms: C44_23  and  C45_24 
REMARK       I    between atoms: N58_30  and  C18_33 
REMARK   13  A    between atoms: N20_31  and  C19_32 
REMARK       I    between atoms: N20_31  and  C21_38 
REMARK   14  A    between atoms: C19_32  and  C18_33 
REMARK   15  A    between atoms: C19_32  and  C62_35 
REMARK       I    between atoms: C21_38  and  N74_39 
REMARK   16  A    between atoms: N74_39  and  C75_40 
REMARK   17  A    between atoms: C75_40  and  C77_42 
REMARK   18  A    between atoms: C82_45  and  C85_47 
ROOT
HETATM    1  C15   D T 401      -1.130   0.849  11.221  1.00 59.81     0.113 C 
ENDROOT
BRANCH   1   2
HETATM    2  C14   D T 401      -1.437  -0.420  10.415  1.00 58.93     0.060 C 
BRANCH   2   3
HETATM    3  C13   D T 401      -0.547  -1.655  10.688  1.00 59.07     0.177 C 
HETATM    4  O41   D T 401       0.308  -1.840   9.566  1.00 58.43    -0.221 OA
BRANCH   3   5
HETATM    5  C12   D T 401      -1.304  -2.966  10.921  1.00 59.52     0.143 C 
BRANCH   5   6
HETATM    6  N11   D T 401      -0.417  -3.854  11.655  1.00 58.37    -0.211 NA
HETATM    7  C10   D T 401      -0.041  -4.988  11.089  1.00 59.08     0.384 C 
HETATM    8  O24   D T 401      -0.506  -5.334  10.004  1.00 59.19    -0.236 OA
BRANCH   7   9
HETATM    9  O7    D T 401       0.952  -5.827  11.745  1.00 58.33    -0.278 OA
BRANCH   9  10
HETATM   10  C6    D T 401       2.069  -5.166  12.311  1.00 59.85     0.188 C 
BRANCH  10  11
HETATM   11  C2    D T 401       2.941  -4.721  11.183  1.00 62.87     0.058 A 
HETATM   12  C1    D T 401       3.594  -5.385  10.151  1.00 63.59     0.104 A 
HETATM   13  N5    D T 401       4.319  -4.504   9.372  1.00 65.21    -0.235 NA
HETATM   14  C4    D T 401       4.275  -3.187   9.732  1.00 64.03     0.134 A 
HETATM   15  S3    D T 401       3.288  -3.022  11.139  1.00 63.44    -0.066 SA
ENDBRANCH  10  11
ENDBRANCH   9  10
ENDBRANCH   7   9
ENDBRANCH   5   6
BRANCH   5  16
HETATM   16  C26   D T 401      -2.666  -2.844  11.636  1.00 59.99     0.053 C 
BRANCH  16  17
HETATM   17  C28   D T 401      -3.827  -3.198  10.712  1.00 61.27    -0.020 A 
HETATM   18  C31   D T 401      -4.220  -4.538  10.543  1.00 62.70    -0.004 A 
HETATM   19  C32   D T 401      -5.291  -4.886   9.694  1.00 62.25    -0.000 A 
HETATM   20  C33   D T 401      -5.997  -3.899   9.005  1.00 60.89    -0.000 A 
HETATM   21  C34   D T 401      -5.617  -2.564   9.163  1.00 61.83    -0.000 A 
HETATM   22  C35   D T 401      -4.535  -2.211  10.008  1.00 61.69    -0.004 A 
ENDBRANCH  16  17
ENDBRANCH   5  16
ENDBRANCH   3   5
ENDBRANCH   2   3
ENDBRANCH   1   2
BRANCH   1  23
HETATM   23  C44   D T 401      -1.909   2.046  10.647  1.00 61.03     0.051 C 
BRANCH  23  24
HETATM   24  C45   D T 401      -3.250   1.731   9.994  1.00 62.14    -0.020 A 
HETATM   25  C48   D T 401      -3.261   1.719   8.600  1.00 62.95    -0.004 A 
HETATM   26  C49   D T 401      -4.416   1.411   7.864  1.00 63.23    -0.000 A 
HETATM   27  C50   D T 401      -5.593   1.096   8.538  1.00 64.66    -0.000 A 
HETATM   28  C51   D T 401      -5.600   1.099   9.941  1.00 64.50    -0.000 A 
HETATM   29  C52   D T 401      -4.441   1.406  10.672  1.00 63.39    -0.004 A 
ENDBRANCH  23  24
ENDBRANCH   1  23
BRANCH   1  30
HETATM   30  N58   D T 401       0.247   1.252  11.127  1.00 60.63    -0.238 NA
HETATM   31  C18   D T 401       1.187   1.149  12.051  1.00 62.24     0.274 C 
HETATM   32  O61   D T 401       1.114   0.637  13.168  1.00 61.50    -0.268 OA
BRANCH  31  33
HETATM   33  C19   D T 401       2.439   1.796  11.565  1.00 64.75     0.188 C 
BRANCH  33  34
HETATM   34  N20   D T 401       2.768   1.271  10.255  1.00 65.69    -0.211 NA
HETATM   35  C21   D T 401       3.959   0.786  10.017  1.00 66.79     0.343 C 
HETATM   36  N74   D T 401       4.496   0.952   8.820  1.00 71.41    -0.294 N 
HETATM   37  O76   D T 401       4.628   0.330  10.907  1.00 67.85    -0.245 OA
HETATM   38  C95   D T 401       4.268   2.119   7.961  1.00 70.78     0.131 C 
BRANCH  36  39
HETATM   39  C75   D T 401       5.437  -0.018   8.284  1.00 74.33     0.152 C 
BRANCH  39  40
HETATM   40  C77   D T 401       6.768   0.657   8.236  1.00 76.44     0.088 A 
HETATM   41  C80   D T 401       7.162   1.689   9.097  1.00 78.25     0.053 A 
HETATM   42  S81   D T 401       8.776   2.179   8.717  1.00 82.00    -0.070 SA
HETATM   43  C82   D T 401       8.892   0.999   7.433  1.00 80.73     0.088 A 
HETATM   44  N83   D T 401       7.732   0.286   7.335  1.00 78.96    -0.245 NA
BRANCH  43  45
HETATM   45  C85   D T 401      10.165   0.924   6.670  1.00 81.61     0.047 C 
HETATM   46  C86   D T 401      11.002  -0.291   7.090  1.00 81.16     0.007 C 
HETATM   47  C90   D T 401      10.925   2.253   6.829  1.00 82.31     0.007 C 
ENDBRANCH  43  45
ENDBRANCH  39  40
ENDBRANCH  36  39
ENDBRANCH  33  34
BRANCH  33  48
HETATM   48  C62   D T 401       2.277   3.326  11.465  1.00 64.68     0.032 C 
HETATM   49  C64   D T 401       1.466   3.888  12.620  1.00 64.29     0.003 C 
HETATM   50  C68   D T 401       3.622   4.039  11.347  1.00 63.77     0.003 C 
ENDBRANCH  33  48
ENDBRANCH  31  33
ENDBRANCH   1  30
TORSDOF 18
ENDMDL
MODEL 5
REMARK VINA RESULT:    -8.458      2.342      9.512
REMARK INTER + INTRA:         -21.806
REMARK INTER:                 -18.297
REMARK INTRA:                  -3.509
REMARK UNBOUND:                -4.447
REMARK  18 active torsions:
REMARK  status: ('A' for Active; 'I' for Inactive)
REMARK    1  A    between atoms: C2_2  and  C6_6 
REMARK    2  A    between atoms: C6_6  and  O7_7 
REMARK    3  A    between atoms: O7_7  and  C10_8 
REMARK       I    between atoms: C10_8  and  N11_10 
REMARK    4  A    between atoms: N11_10  and  C12_11 
REMARK    5  A    between atoms: C12_11  and  C13_12 
REMARK    6  A    between atoms: C12_11  and  C26_15 
REMARK    7  A    between atoms: C13_12  and  C14_13 
REMARK    8  A    between atoms: C14_13  and  C15_14 
REMARK    9  A    between atoms: C15_14  and  C44_23 
REMARK   10  A    between atoms: C15_14  and  N58_30 
REMARK   11  A    between atoms: C26_15  and  C28_16 
REMARK   12  A    between atoms: C44_23  and  C45_24 
REMARK       I    between atoms: N58_30  and  C18_33 
REMARK   13  A    between atoms: N20_31  and  C19_32 
REMARK       I    between atoms: N20_31  and  C21_38 
REMARK   14  A    between atoms: C19_32  and  C18_33 
REMARK   15  A    between atoms: C19_32  and  C62_35 
REMARK       I    between atoms: C21_38  and  N74_39 
REMARK   16  A    between atoms: N74_39  and  C75_40 
REMARK   17  A    between atoms: C75_40  and  C77_42 
REMARK   18  A    between atoms: C82_45  and  C85_47 
ROOT
HETATM    1  C15   D T 401       0.627  -3.103  10.930  1.00 59.81     0.113 C 
ENDROOT
BRANCH   1   2
HETATM    2  C14   D T 401      -0.092  -4.104  11.845  1.00 58.93     0.060 C 
BRANCH   2   3
HETATM    3  C13   D T 401      -0.767  -5.317  11.163  1.00 59.07     0.177 C 
HETATM    4  O41   D T 401      -0.441  -5.283   9.778  1.00 58.43    -0.221 OA
BRANCH   3   5
HETATM    5  C12   D T 401      -2.293  -5.367  11.283  1.00 59.52     0.143 C 
BRANCH   5   6
HETATM    6  N11   D T 401      -2.619  -6.427  12.223  1.00 58.37    -0.211 NA
HETATM    7  C10   D T 401      -2.917  -7.626  11.752  1.00 59.08     0.384 C 
HETATM    8  O24   D T 401      -3.012  -7.819  10.540  1.00 59.19    -0.236 OA
BRANCH   7   9
HETATM    9  O7    D T 401      -3.112  -8.735  12.674  1.00 58.33    -0.278 OA
BRANCH   9  10
HETATM   10  C6    D T 401      -1.974  -9.173  13.392  1.00 59.85     0.188 C 
BRANCH  10  11
HETATM   11  C2    D T 401      -1.546 -10.474  12.796  1.00 62.87     0.058 A 
HETATM   12  C1    D T 401      -1.835 -11.805  13.080  1.00 63.59     0.104 A 
HETATM   13  N5    D T 401      -1.142 -12.655  12.240  1.00 65.21    -0.235 NA
HETATM   14  C4    D T 401      -0.324 -12.072  11.315  1.00 64.03     0.134 A 
HETATM   15  S3    D T 401      -0.397 -10.358  11.503  1.00 63.44    -0.066 SA
ENDBRANCH  10  11
ENDBRANCH   9  10
ENDBRANCH   7   9
ENDBRANCH   5   6
BRANCH   5  16
HETATM   16  C26   D T 401      -2.984  -4.047  11.689  1.00 59.99     0.053 C 
BRANCH  16  17
HETATM   17  C28   D T 401      -4.036  -3.620  10.671  1.00 61.27    -0.020 A 
HETATM   18  C31   D T 401      -4.244  -2.257  10.390  1.00 62.70    -0.004 A 
HETATM   19  C32   D T 401      -5.211  -1.841   9.453  1.00 62.25    -0.000 A 
HETATM   20  C33   D T 401      -5.984  -2.781   8.770  1.00 60.89    -0.000 A 
HETATM   21  C34   D T 401      -5.790  -4.138   9.040  1.00 61.83    -0.000 A 
HETATM   22  C35   D T 401      -4.825  -4.559   9.988  1.00 61.69    -0.004 A 
ENDBRANCH  16  17
ENDBRANCH   5  16
ENDBRANCH   3   5
ENDBRANCH   2   3
ENDBRANCH   1   2
BRANCH   1  23
HETATM   23  C44   D T 401       2.071  -2.882  11.414  1.00 61.03     0.051 C 
BRANCH  23  24
HETATM   24  C45   D T 401       3.165  -3.604  10.635  1.00 62.14    -0.020 A 
HETATM   25  C48   D T 401       4.440  -3.562  11.196  1.00 62.95    -0.004 A 
HETATM   26  C49   D T 401       5.537  -4.211  10.608  1.00 63.23    -0.000 A 
HETATM   27  C50   D T 401       5.355  -4.932   9.431  1.00 64.66    -0.000 A 
HETATM   28  C51   D T 401       4.078  -4.990   8.854  1.00 64.50    -0.000 A 
HETATM   29  C52   D T 401       2.984  -4.340   9.448  1.00 63.39    -0.004 A 
ENDBRANCH  23  24
ENDBRANCH   1  23
BRANCH   1  30
HETATM   30  N58   D T 401       0.041  -1.791  10.968  1.00 60.63    -0.238 NA
HETATM   31  C18   D T 401      -0.043  -0.912   9.984  1.00 62.24     0.274 C 
HETATM   32  O61   D T 401       0.303  -1.038   8.809  1.00 61.50    -0.268 OA
BRANCH  31  33
HETATM   33  C19   D T 401      -0.624   0.361  10.498  1.00 64.75     0.188 C 
BRANCH  33  34
HETATM   34  N20   D T 401       0.238   1.463  10.123  1.00 65.69    -0.211 NA
HETATM   35  C21   D T 401       1.128   1.923  10.963  1.00 66.79     0.343 C 
HETATM   36  N74   D T 401       1.400   3.216  10.972  1.00 71.41    -0.294 N 
HETATM   37  O76   D T 401       1.586   1.216  11.822  1.00 67.85    -0.245 OA
HETATM   38  C95   D T 401       0.426   4.272  10.673  1.00 70.78     0.131 C 
BRANCH  36  39
HETATM   39  C75   D T 401       2.715   3.700  11.359  1.00 74.33     0.152 C 
BRANCH  39  40
HETATM   40  C77   D T 401       3.622   3.453  10.198  1.00 76.44     0.088 A 
HETATM   41  C80   D T 401       3.988   4.426   9.261  1.00 78.25     0.053 A 
HETATM   42  S81   D T 401       5.058   3.734   8.093  1.00 82.00    -0.070 SA
HETATM   43  C82   D T 401       5.000   2.175   8.880  1.00 80.73     0.088 A 
HETATM   44  N83   D T 401       4.192   2.226   9.979  1.00 78.96    -0.245 NA
BRANCH  43  45
HETATM   45  C85   D T 401       5.800   1.069   8.292  1.00 81.61     0.047 C 
HETATM   46  C86   D T 401       5.490  -0.272   8.970  1.00 81.16     0.007 C 
HETATM   47  C90   D T 401       7.292   1.437   8.357  1.00 82.31     0.007 C 
ENDBRANCH  43  45
ENDBRANCH  39  40
ENDBRANCH  36  39
ENDBRANCH  33  34
BRANCH  33  48
HETATM   48  C62   D T 401      -2.033   0.607   9.922  1.00 64.68     0.032 C 
HETATM   49  C64   D T 401      -2.979   1.183  10.962  1.00 64.29     0.003 C 
HETATM   50  C68   D T 401      -1.996   1.485   8.673  1.00 63.77     0.003 C 
ENDBRANCH  33  48
ENDBRANCH  31  33
ENDBRANCH   1  30
TORSDOF 18
ENDMDL
MODEL 6
REMARK VINA RESULT:    -8.364      2.293      6.764
REMARK INTER + INTRA:         -21.614
REMARK INTER:                 -18.054
REMARK INTRA:                  -3.560
REMARK UNBOUND:                -4.447
REMARK  18 active torsions:
REMARK  status: ('A' for Active; 'I' for Inactive)
REMARK    1  A    between atoms: C2_2  and  C6_6 
REMARK    2  A    between atoms: C6_6  and  O7_7 
REMARK    3  A    between atoms: O7_7  and  C10_8 
REMARK       I    between atoms: C10_8  and  N11_10 
REMARK    4  A    between atoms: N11_10  and  C12_11 
REMARK    5  A    between atoms: C12_11  and  C13_12 
REMARK    6  A    between atoms: C12_11  and  C26_15 
REMARK    7  A    between atoms: C13_12  and  C14_13 
REMARK    8  A    between atoms: C14_13  and  C15_14 
REMARK    9  A    between atoms: C15_14  and  C44_23 
REMARK   10  A    between atoms: C15_14  and  N58_30 
REMARK   11  A    between atoms: C26_15  and  C28_16 
REMARK   12  A    between atoms: C44_23  and  C45_24 
REMARK       I    between atoms: N58_30  and  C18_33 
REMARK   13  A    between atoms: N20_31  and  C19_32 
REMARK       I    between atoms: N20_31  and  C21_38 
REMARK   14  A    between atoms: C19_32  and  C18_33 
REMARK   15  A    between atoms: C19_32  and  C62_35 
REMARK       I    between atoms: C21_38  and  N74_39 
REMARK   16  A    between atoms: N74_39  and  C75_40 
REMARK   17  A    between atoms: C75_40  and  C77_42 
REMARK   18  A    between atoms: C82_45  and  C85_47 
ROOT
HETATM    1  C15   D T 401      -0.729   0.527  11.298  1.00 59.81     0.113 C 
ENDROOT
BRANCH   1   2
HETATM    2  C14   D T 401      -1.252  -0.697  10.535  1.00 58.93     0.060 C 
BRANCH   2   3
HETATM    3  C13   D T 401      -0.608  -2.062  10.875  1.00 59.07     0.177 C 
HETATM    4  O41   D T 401       0.342  -2.367   9.861  1.00 58.43    -0.221 OA
BRANCH   3   5
HETATM    5  C12   D T 401      -1.584  -3.238  10.971  1.00 59.52     0.143 C 
BRANCH   5   6
HETATM    6  N11   D T 401      -0.907  -4.305  11.691  1.00 58.37    -0.211 NA
HETATM    7  C10   D T 401      -0.822  -5.498  11.128  1.00 59.08     0.384 C 
HETATM    8  O24   D T 401      -1.387  -5.731  10.060  1.00 59.19    -0.236 OA
BRANCH   7   9
HETATM    9  O7    D T 401      -0.033  -6.542  11.765  1.00 58.33    -0.278 OA
BRANCH   9  10
HETATM   10  C6    D T 401      -0.560  -7.855  11.719  1.00 59.85     0.188 C 
BRANCH  10  11
HETATM   11  C2    D T 401      -0.269  -8.497  13.036  1.00 62.87     0.058 A 
HETATM   12  C1    D T 401      -1.065  -9.004  14.057  1.00 63.59     0.104 A 
HETATM   13  N5    D T 401      -0.294  -9.470  15.104  1.00 65.21    -0.235 NA
HETATM   14  C4    D T 401       1.060  -9.358  14.967  1.00 64.03     0.134 A 
HETATM   15  S3    D T 401       1.411  -8.610  13.452  1.00 63.44    -0.066 SA
ENDBRANCH  10  11
ENDBRANCH   9  10
ENDBRANCH   7   9
ENDBRANCH   5   6
BRANCH   5  16
HETATM   16  C26   D T 401      -2.953  -2.931  11.615  1.00 59.99     0.053 C 
BRANCH  16  17
HETATM   17  C28   D T 401      -4.108  -3.228  10.664  1.00 61.27    -0.020 A 
HETATM   18  C31   D T 401      -4.593  -2.232   9.798  1.00 62.70    -0.004 A 
HETATM   19  C32   D T 401      -5.659  -2.487   8.912  1.00 62.25    -0.000 A 
HETATM   20  C33   D T 401      -6.255  -3.748   8.866  1.00 60.89    -0.000 A 
HETATM   21  C34   D T 401      -5.784  -4.747   9.722  1.00 61.83    -0.000 A 
HETATM   22  C35   D T 401      -4.718  -4.491  10.620  1.00 61.69    -0.004 A 
ENDBRANCH  16  17
ENDBRANCH   5  16
ENDBRANCH   3   5
ENDBRANCH   2   3
ENDBRANCH   1   2
BRANCH   1  23
HETATM   23  C44   D T 401      -1.451   1.799  10.821  1.00 61.03     0.051 C 
BRANCH  23  24
HETATM   24  C45   D T 401      -2.866   1.615  10.284  1.00 62.14    -0.020 A 
HETATM   25  C48   D T 401      -3.004   1.682   8.898  1.00 62.95    -0.004 A 
HETATM   26  C49   D T 401      -4.241   1.496   8.261  1.00 63.23    -0.000 A 
HETATM   27  C50   D T 401      -5.372   1.225   9.026  1.00 64.66    -0.000 A 
HETATM   28  C51   D T 401      -5.252   1.150  10.422  1.00 64.50    -0.000 A 
HETATM   29  C52   D T 401      -4.012   1.335  11.054  1.00 63.39    -0.004 A 
ENDBRANCH  23  24
ENDBRANCH   1  23
BRANCH   1  30
HETATM   30  N58   D T 401       0.659   0.796  11.040  1.00 60.63    -0.238 NA
HETATM   31  C18   D T 401       1.244   0.988   9.870  1.00 62.24     0.274 C 
HETATM   32  O61   D T 401       0.730   1.037   8.753  1.00 61.50    -0.268 OA
BRANCH  31  33
HETATM   33  C19   D T 401       2.716   1.121  10.063  1.00 64.75     0.188 C 
BRANCH  33  34
HETATM   34  N20   D T 401       3.292  -0.195  10.250  1.00 65.69    -0.211 NA
HETATM   35  C21   D T 401       3.895  -0.501  11.369  1.00 66.79     0.343 C 
HETATM   36  N74   D T 401       4.944  -1.305  11.338  1.00 71.41    -0.294 N 
HETATM   37  O76   D T 401       3.606   0.055  12.396  1.00 67.85    -0.245 OA
HETATM   38  C95   D T 401       5.909  -1.371  10.235  1.00 70.78     0.131 C 
BRANCH  36  39
HETATM   39  C75   D T 401       5.261  -2.162  12.469  1.00 74.33     0.152 C 
BRANCH  39  40
HETATM   40  C77   D T 401       4.879  -3.552  12.074  1.00 76.44     0.088 A 
HETATM   41  C80   D T 401       3.574  -3.956  11.770  1.00 78.25     0.053 A 
HETATM   42  S81   D T 401       3.568  -5.633  11.350  1.00 82.00    -0.070 SA
HETATM   43  C82   D T 401       5.295  -5.755  11.580  1.00 80.73     0.088 A 
HETATM   44  N83   D T 401       5.812  -4.548  11.958  1.00 78.96    -0.245 NA
BRANCH  43  45
HETATM   45  C85   D T 401       5.939  -7.073  11.338  1.00 81.61     0.047 C 
HETATM   46  C86   D T 401       5.533  -8.101  12.402  1.00 81.16     0.007 C 
HETATM   47  C90   D T 401       7.462  -6.879  11.249  1.00 82.31     0.007 C 
ENDBRANCH  43  45
ENDBRANCH  39  40
ENDBRANCH  36  39
ENDBRANCH  33  34
BRANCH  33  48
HETATM   48  C62   D T 401       3.383   1.792   8.845  1.00 64.68     0.032 C 
HETATM   49  C64   D T 401       4.265   2.959   9.253  1.00 64.29     0.003 C 
HETATM   50  C68   D T 401       4.162   0.792   7.994  1.00 63.77     0.003 C 
ENDBRANCH  33  48
ENDBRANCH  31  33
ENDBRANCH   1  30
TORSDOF 18
ENDMDL
MODEL 7
REMARK VINA RESULT:    -8.295      1.836      4.654
REMARK INTER + INTRA:         -21.471
REMARK INTER:                 -18.346
REMARK INTRA:                  -3.125
REMARK UNBOUND:                -4.447
REMARK  18 active torsions:
REMARK  status: ('A' for Active; 'I' for Inactive)
REMARK    1  A    between atoms: C2_2  and  C6_6 
REMARK    2  A    between atoms: C6_6  and  O7_7 
REMARK    3  A    between atoms: O7_7  and  C10_8 
REMARK       I    between atoms: C10_8  and  N11_10 
REMARK    4  A    between atoms: N11_10  and  C12_11 
REMARK    5  A    between atoms: C12_11  and  C13_12 
REMARK    6  A    between atoms: C12_11  and  C26_15 
REMARK    7  A    between atoms: C13_12  and  C14_13 
REMARK    8  A    between atoms: C14_13  and  C15_14 
REMARK    9  A    between atoms: C15_14  and  C44_23 
REMARK   10  A    between atoms: C15_14  and  N58_30 
REMARK   11  A    between atoms: C26_15  and  C28_16 
REMARK   12  A    between atoms: C44_23  and  C45_24 
REMARK       I    between atoms: N58_30  and  C18_33 
REMARK   13  A    between atoms: N20_31  and  C19_32 
REMARK       I    between atoms: N20_31  and  C21_38 
REMARK   14  A    between atoms: C19_32  and  C18_33 
REMARK   15  A    between atoms: C19_32  and  C62_35 
REMARK       I    between atoms: C21_38  and  N74_39 
REMARK   16  A    between atoms: N74_39  and  C75_40 
REMARK   17  A    between atoms: C75_40  and  C77_42 
REMARK   18  A    between atoms: C82_45  and  C85_47 
ROOT
HETATM    1  C15   D T 401       0.628  -2.412  10.826  1.00 59.81     0.113 C 
ENDROOT
BRANCH   1   2
HETATM    2  C14   D T 401       0.203  -0.948  11.004  1.00 58.93     0.060 C 
BRANCH   2   3
HETATM    3  C13   D T 401      -0.170  -0.167   9.723  1.00 59.07     0.177 C 
HETATM    4  O41   D T 401       1.029   0.345   9.153  1.00 58.43    -0.221 OA
BRANCH   3   5
HETATM    5  C12   D T 401      -1.128   1.010   9.931  1.00 59.52     0.143 C 
BRANCH   5   6
HETATM    6  N11   D T 401      -0.324   2.220   9.984  1.00 58.37    -0.211 NA
HETATM    7  C10   D T 401      -0.185   2.841  11.142  1.00 59.08     0.384 C 
HETATM    8  O24   D T 401      -0.800   2.462  12.137  1.00 59.19    -0.236 OA
BRANCH   7   9
HETATM    9  O7    D T 401       0.724   3.974  11.248  1.00 58.33    -0.278 OA
BRANCH   9  10
HETATM   10  C6    D T 401       1.892   3.781  12.024  1.00 59.85     0.188 C 
BRANCH  10  11
HETATM   11  C2    D T 401       2.858   3.008  11.187  1.00 62.87     0.058 A 
HETATM   12  C1    D T 401       3.417   1.738  11.286  1.00 63.59     0.104 A 
HETATM   13  N5    D T 401       4.302   1.502  10.252  1.00 65.21    -0.235 NA
HETATM   14  C4    D T 401       4.474   2.511   9.349  1.00 64.03     0.134 A 
HETATM   15  S3    D T 401       3.492   3.853   9.812  1.00 63.44    -0.066 SA
ENDBRANCH  10  11
ENDBRANCH   9  10
ENDBRANCH   7   9
ENDBRANCH   5   6
BRANCH   5  16
HETATM   16  C26   D T 401      -2.261   1.152   8.892  1.00 59.99     0.053 C 
BRANCH  16  17
HETATM   17  C28   D T 401      -3.611   0.728   9.460  1.00 61.27    -0.020 A 
HETATM   18  C31   D T 401      -3.861   0.813  10.842  1.00 62.70    -0.004 A 
HETATM   19  C32   D T 401      -5.102   0.426  11.387  1.00 62.25    -0.000 A 
HETATM   20  C33   D T 401      -6.123  -0.044  10.559  1.00 60.89    -0.000 A 
HETATM   21  C34   D T 401      -5.888  -0.134   9.184  1.00 61.83    -0.000 A 
HETATM   22  C35   D T 401      -4.638   0.245   8.635  1.00 61.69    -0.004 A 
ENDBRANCH  16  17
ENDBRANCH   5  16
ENDBRANCH   3   5
ENDBRANCH   2   3
ENDBRANCH   1   2
BRANCH   1  23
HETATM   23  C44   D T 401       1.345  -2.597   9.477  1.00 61.03     0.051 C 
BRANCH  23  24
HETATM   24  C45   D T 401       2.781  -3.108   9.538  1.00 62.14    -0.020 A 
HETATM   25  C48   D T 401       2.971  -4.435   9.156  1.00 62.95    -0.004 A 
HETATM   26  C49   D T 401       4.243  -5.030   9.128  1.00 63.23    -0.000 A 
HETATM   27  C50   D T 401       5.358  -4.276   9.483  1.00 64.66    -0.000 A 
HETATM   28  C51   D T 401       5.187  -2.938   9.866  1.00 64.50    -0.000 A 
HETATM   29  C52   D T 401       3.913  -2.347   9.889  1.00 63.39    -0.004 A 
ENDBRANCH  23  24
ENDBRANCH   1  23
BRANCH   1  30
HETATM   30  N58   D T 401      -0.490  -3.313  10.753  1.00 60.63    -0.238 NA
HETATM   31  C18   D T 401      -1.343  -3.627  11.713  1.00 62.24     0.274 C 
HETATM   32  O61   D T 401      -1.410  -3.179  12.858  1.00 61.50    -0.268 OA
BRANCH  31  33
HETATM   33  C19   D T 401      -2.273  -4.687  11.230  1.00 64.75     0.188 C 
BRANCH  33  34
HETATM   34  N20   D T 401      -2.132  -5.861  12.067  1.00 65.69    -0.211 NA
HETATM   35  C21   D T 401      -1.750  -7.000  11.551  1.00 66.79     0.343 C 
HETATM   36  N74   D T 401      -2.246  -8.126  12.035  1.00 71.41    -0.294 N 
HETATM   37  O76   D T 401      -1.079  -7.030  10.554  1.00 67.85    -0.245 OA
HETATM   38  C95   D T 401      -3.600  -8.272  12.579  1.00 70.78     0.131 C 
BRANCH  36  39
HETATM   39  C75   D T 401      -1.476  -9.359  11.995  1.00 74.33     0.152 C 
BRANCH  39  40
HETATM   40  C77   D T 401      -0.414  -9.235  13.038  1.00 76.44     0.088 A 
HETATM   41  C80   D T 401       0.916  -8.888  12.774  1.00 78.25     0.053 A 
HETATM   42  S81   D T 401       1.810  -8.842  14.253  1.00 82.00    -0.070 SA
HETATM   43  C82   D T 401       0.397  -9.275  15.185  1.00 80.73     0.088 A 
HETATM   44  N83   D T 401      -0.684  -9.436  14.366  1.00 78.96    -0.245 NA
BRANCH  43  45
HETATM   45  C85   D T 401       0.546  -9.394  16.660  1.00 81.61     0.047 C 
HETATM   46  C86   D T 401      -0.795  -9.704  17.338  1.00 81.16     0.007 C 
HETATM   47  C90   D T 401       1.204  -8.114  17.202  1.00 82.31     0.007 C 
ENDBRANCH  43  45
ENDBRANCH  39  40
ENDBRANCH  36  39
ENDBRANCH  33  34
BRANCH  33  48
HETATM   48  C62   D T 401      -3.738  -4.211  11.276  1.00 64.68     0.032 C 
HETATM   49  C64   D T 401      -3.907  -2.831  10.663  1.00 64.29     0.003 C 
HETATM   50  C68   D T 401      -4.688  -5.215  10.626  1.00 63.77     0.003 C 
ENDBRANCH  33  48
ENDBRANCH  31  33
ENDBRANCH   1  30
TORSDOF 18
ENDMDL
MODEL 8
REMARK VINA RESULT:    -8.273      3.131      9.726
REMARK INTER + INTRA:         -21.425
REMARK INTER:                 -18.142
REMARK INTRA:                  -3.283
REMARK UNBOUND:                -4.447
REMARK  18 active torsions:
REMARK  status: ('A' for Active; 'I' for Inactive)
REMARK    1  A    between atoms: C2_2  and  C6_6 
REMARK    2  A    between atoms: C6_6  and  O7_7 
REMARK    3  A    between atoms: O7_7  and  C10_8 
REMARK       I    between atoms: C10_8  and  N11_10 
REMARK    4  A    between atoms: N11_10  and  C12_11 
REMARK    5  A    between atoms: C12_11  and  C13_12 
REMARK    6  A    between atoms: C12_11  and  C26_15 
REMARK    7  A    between atoms: C13_12  and  C14_13 
REMARK    8  A    between atoms: C14_13  and  C15_14 
REMARK    9  A    between atoms: C15_14  and  C44_23 
REMARK   10  A    between atoms: C15_14  and  N58_30 
REMARK   11  A    between atoms: C26_15  and  C28_16 
REMARK   12  A    between atoms: C44_23  and  C45_24 
REMARK       I    between atoms: N58_30  and  C18_33 
REMARK   13  A    between atoms: N20_31  and  C19_32 
REMARK       I    between atoms: N20_31  and  C21_38 
REMARK   14  A    between atoms: C19_32  and  C18_33 
REMARK   15  A    between atoms: C19_32  and  C62_35 
REMARK       I    between atoms: C21_38  and  N74_39 
REMARK   16  A    between atoms: N74_39  and  C75_40 
REMARK   17  A    between atoms: C75_40  and  C77_42 
REMARK   18  A    between atoms: C82_45  and  C85_47 
ROOT
HETATM    1  C15   D T 401      -0.147  -0.511  10.392  1.00 59.81     0.113 C 
ENDROOT
BRANCH   1   2
HETATM    2  C14   D T 401      -0.725  -1.897  10.073  1.00 58.93     0.060 C 
BRANCH   2   3
HETATM    3  C13   D T 401      -0.652  -2.961  11.193  1.00 59.07     0.177 C 
HETATM    4  O41   D T 401       0.506  -3.757  10.972  1.00 58.43    -0.221 OA
BRANCH   3   5
HETATM    5  C12   D T 401      -1.858  -3.902  11.279  1.00 59.52     0.143 C 
BRANCH   5   6
HETATM    6  N11   D T 401      -1.486  -5.004  12.152  1.00 58.37    -0.211 NA
HETATM    7  C10   D T 401      -1.635  -6.241  11.711  1.00 59.08     0.384 C 
HETATM    8  O24   D T 401      -2.167  -6.462  10.625  1.00 59.19    -0.236 OA
BRANCH   7   9
HETATM    9  O7    D T 401      -1.144  -7.355  12.510  1.00 58.33    -0.278 OA
BRANCH   9  10
HETATM   10  C6    D T 401       0.069  -7.952  12.091  1.00 59.85     0.188 C 
BRANCH  10  11
HETATM   11  C2    D T 401      -0.195  -9.409  11.900  1.00 62.87     0.058 A 
HETATM   12  C1    D T 401       0.049 -10.306  10.865  1.00 63.59     0.104 A 
HETATM   13  N5    D T 401      -0.430 -11.564  11.173  1.00 65.21    -0.235 NA
HETATM   14  C4    D T 401      -1.037 -11.710  12.388  1.00 64.03     0.134 A 
HETATM   15  S3    D T 401      -1.037 -10.188  13.202  1.00 63.44    -0.066 SA
ENDBRANCH  10  11
ENDBRANCH   9  10
ENDBRANCH   7   9
ENDBRANCH   5   6
BRANCH   5  16
HETATM   16  C26   D T 401      -3.183  -3.262  11.744  1.00 59.99     0.053 C 
BRANCH  16  17
HETATM   17  C28   D T 401      -4.241  -3.282  10.645  1.00 61.27    -0.020 A 
HETATM   18  C31   D T 401      -4.906  -4.478  10.317  1.00 62.70    -0.004 A 
HETATM   19  C32   D T 401      -5.886  -4.518   9.305  1.00 62.25    -0.000 A 
HETATM   20  C33   D T 401      -6.229  -3.360   8.606  1.00 60.89    -0.000 A 
HETATM   21  C34   D T 401      -5.576  -2.165   8.920  1.00 61.83    -0.000 A 
HETATM   22  C35   D T 401      -4.583  -2.124   9.931  1.00 61.69    -0.004 A 
ENDBRANCH  16  17
ENDBRANCH   5  16
ENDBRANCH   3   5
ENDBRANCH   2   3
ENDBRANCH   1   2
BRANCH   1  23
HETATM   23  C44   D T 401      -0.755   0.548   9.455  1.00 61.03     0.051 C 
BRANCH  23  24
HETATM   24  C45   D T 401      -2.238   0.850   9.645  1.00 62.14    -0.020 A 
HETATM   25  C48   D T 401      -2.679   0.928  10.965  1.00 62.95    -0.004 A 
HETATM   26  C49   D T 401      -4.009   1.233  11.292  1.00 63.23    -0.000 A 
HETATM   27  C50   D T 401      -4.925   1.477  10.272  1.00 64.66    -0.000 A 
HETATM   28  C51   D T 401      -4.499   1.407   8.938  1.00 64.50    -0.000 A 
HETATM   29  C52   D T 401      -3.166   1.104   8.617  1.00 63.39    -0.004 A 
ENDBRANCH  23  24
ENDBRANCH   1  23
BRANCH   1  30
HETATM   30  N58   D T 401       1.266  -0.424  10.146  1.00 60.63    -0.238 NA
HETATM   31  C18   D T 401       2.251  -0.586  11.013  1.00 62.24     0.274 C 
HETATM   32  O61   D T 401       2.186  -0.902  12.201  1.00 61.50    -0.268 OA
BRANCH  31  33
HETATM   33  C19   D T 401       3.554  -0.293  10.349  1.00 64.75     0.188 C 
BRANCH  33  34
HETATM   34  N20   D T 401       4.194   0.816  11.027  1.00 65.69    -0.211 NA
HETATM   35  C21   D T 401       4.005   2.042  10.614  1.00 66.79     0.343 C 
HETATM   36  N74   D T 401       4.997   2.912  10.699  1.00 71.41    -0.294 N 
HETATM   37  O76   D T 401       3.001   2.346  10.024  1.00 67.85    -0.245 OA
HETATM   38  C95   D T 401       6.416   2.570  10.563  1.00 70.78     0.131 C 
BRANCH  36  39
HETATM   39  C75   D T 401       4.732   4.331  10.872  1.00 74.33     0.152 C 
BRANCH  39  40
HETATM   40  C77   D T 401       5.049   4.989   9.568  1.00 76.44     0.088 A 
HETATM   41  C80   D T 401       4.276   4.857   8.409  1.00 78.25     0.053 A 
HETATM   42  S81   D T 401       4.979   5.787   7.132  1.00 82.00    -0.070 SA
HETATM   43  C82   D T 401       6.275   6.333   8.169  1.00 80.73     0.088 A 
HETATM   44  N83   D T 401       6.137   5.808   9.422  1.00 78.96    -0.245 NA
BRANCH  43  45
HETATM   45  C85   D T 401       7.290   7.252   7.589  1.00 81.61     0.047 C 
HETATM   46  C86   D T 401       8.570   6.503   7.198  1.00 81.16     0.007 C 
HETATM   47  C90   D T 401       7.552   8.400   8.578  1.00 82.31     0.007 C 
ENDBRANCH  43  45
ENDBRANCH  39  40
ENDBRANCH  36  39
ENDBRANCH  33  34
BRANCH  33  48
HETATM   48  C62   D T 401       4.492  -1.515  10.392  1.00 64.68     0.032 C 
HETATM   49  C64   D T 401       3.848  -2.747   9.779  1.00 64.29     0.003 C 
HETATM   50  C68   D T 401       5.842  -1.225   9.739  1.00 63.77     0.003 C 
ENDBRANCH  33  48
ENDBRANCH  31  33
ENDBRANCH   1  30
TORSDOF 18
ENDMDL
MODEL 9
REMARK VINA RESULT:    -8.154      3.443      8.766
REMARK INTER + INTRA:         -21.181
REMARK INTER:                 -17.425
REMARK INTRA:                  -3.756
REMARK UNBOUND:                -4.447
REMARK  18 active torsions:
REMARK  status: ('A' for Active; 'I' for Inactive)
REMARK    1  A    between atoms: C2_2  and  C6_6 
REMARK    2  A    between atoms: C6_6  and  O7_7 
REMARK    3  A    between atoms: O7_7  and  C10_8 
REMARK       I    between atoms: C10_8  and  N11_10 
REMARK    4  A    between atoms: N11_10  and  C12_11 
REMARK    5  A    between atoms: C12_11  and  C13_12 
REMARK    6  A    between atoms: C12_11  and  C26_15 
REMARK    7  A    between atoms: C13_12  and  C14_13 
REMARK    8  A    between atoms: C14_13  and  C15_14 
REMARK    9  A    between atoms: C15_14  and  C44_23 
REMARK   10  A    between atoms: C15_14  and  N58_30 
REMARK   11  A    between atoms: C26_15  and  C28_16 
REMARK   12  A    between atoms: C44_23  and  C45_24 
REMARK       I    between atoms: N58_30  and  C18_33 
REMARK   13  A    between atoms: N20_31  and  C19_32 
REMARK       I    between atoms: N20_31  and  C21_38 
REMARK   14  A    between atoms: C19_32  and  C18_33 
REMARK   15  A    between atoms: C19_32  and  C62_35 
REMARK       I    between atoms: C21_38  and  N74_39 
REMARK   16  A    between atoms: N74_39  and  C75_40 
REMARK   17  A    between atoms: C75_40  and  C77_42 
REMARK   18  A    between atoms: C82_45  and  C85_47 
ROOT
HETATM    1  C15   D T 401      -0.549   1.036  10.506  1.00 59.81     0.113 C 
ENDROOT
BRANCH   1   2
HETATM    2  C14   D T 401      -0.869  -0.449  10.288  1.00 58.93     0.060 C 
BRANCH   2   3
HETATM    3  C13   D T 401      -1.093  -1.310  11.553  1.00 59.07     0.177 C 
HETATM    4  O41   D T 401       0.098  -1.272  12.330  1.00 58.43    -0.221 OA
BRANCH   3   5
HETATM    5  C12   D T 401      -1.434  -2.780  11.291  1.00 59.52     0.143 C 
BRANCH   5   6
HETATM    6  N11   D T 401      -0.306  -3.575  11.749  1.00 58.37    -0.211 NA
HETATM    7  C10   D T 401       0.048  -4.638  11.048  1.00 59.08     0.384 C 
HETATM    8  O24   D T 401      -0.619  -5.006  10.082  1.00 59.19    -0.236 OA
BRANCH   7   9
HETATM    9  O7    D T 401       1.255  -5.369  11.408  1.00 58.33    -0.278 OA
BRANCH   9  10
HETATM   10  C6    D T 401       2.119  -4.750  12.343  1.00 59.85     0.188 C 
BRANCH  10  11
HETATM   11  C2    D T 401       3.302  -4.243  11.585  1.00 62.87     0.058 A 
HETATM   12  C1    D T 401       3.874  -2.986  11.422  1.00 63.59     0.104 A 
HETATM   13  N5    D T 401       4.964  -3.042  10.575  1.00 65.21    -0.235 NA
HETATM   14  C4    D T 401       5.281  -4.267  10.062  1.00 64.03     0.134 A 
HETATM   15  S3    D T 401       4.148  -5.431  10.647  1.00 63.44    -0.066 SA
ENDBRANCH  10  11
ENDBRANCH   9  10
ENDBRANCH   7   9
ENDBRANCH   5   6
BRANCH   5  16
HETATM   16  C26   D T 401      -2.751  -3.291  11.915  1.00 59.99     0.053 C 
BRANCH  16  17
HETATM   17  C28   D T 401      -3.844  -3.471  10.868  1.00 61.27    -0.020 A 
HETATM   18  C31   D T 401      -4.356  -2.360  10.173  1.00 62.70    -0.004 A 
HETATM   19  C32   D T 401      -5.367  -2.505   9.202  1.00 62.25    -0.000 A 
HETATM   20  C33   D T 401      -5.880  -3.767   8.896  1.00 60.89    -0.000 A 
HETATM   21  C34   D T 401      -5.381  -4.879   9.579  1.00 61.83    -0.000 A 
HETATM   22  C35   D T 401      -4.371  -4.735  10.563  1.00 61.69    -0.004 A 
ENDBRANCH  16  17
ENDBRANCH   5  16
ENDBRANCH   3   5
ENDBRANCH   2   3
ENDBRANCH   1   2
BRANCH   1  23
HETATM   23  C44   D T 401      -1.383   1.905   9.548  1.00 61.03     0.051 C 
BRANCH  23  24
HETATM   24  C45   D T 401      -2.880   1.620   9.503  1.00 62.14    -0.020 A 
HETATM   25  C48   D T 401      -3.414   1.368   8.241  1.00 62.95    -0.004 A 
HETATM   26  C49   D T 401      -4.770   1.056   8.052  1.00 63.23    -0.000 A 
HETATM   27  C50   D T 401      -5.616   0.985   9.155  1.00 64.66    -0.000 A 
HETATM   28  C51   D T 401      -5.096   1.232  10.434  1.00 64.50    -0.000 A 
HETATM   29  C52   D T 401      -3.738   1.541  10.618  1.00 63.39    -0.004 A 
ENDBRANCH  23  24
ENDBRANCH   1  23
BRANCH   1  30
HETATM   30  N58   D T 401       0.812   1.368  10.183  1.00 60.63    -0.238 NA
HETATM   31  C18   D T 401       1.818   1.567  11.017  1.00 62.24     0.274 C 
HETATM   32  O61   D T 401       1.833   1.457  12.244  1.00 61.50    -0.268 OA
BRANCH  31  33
HETATM   33  C19   D T 401       3.022   2.001  10.254  1.00 64.75     0.188 C 
BRANCH  33  34
HETATM   34  N20   D T 401       4.211   1.671  11.013  1.00 65.69    -0.211 NA
HETATM   35  C21   D T 401       5.164   2.553  11.168  1.00 66.79     0.343 C 
HETATM   36  N74   D T 401       6.421   2.146  11.205  1.00 71.41    -0.294 N 
HETATM   37  O76   D T 401       4.925   3.731  11.125  1.00 67.85    -0.245 OA
HETATM   38  C95   D T 401       6.944   0.995  10.461  1.00 70.78     0.131 C 
BRANCH  36  39
HETATM   39  C75   D T 401       7.422   2.880  11.962  1.00 74.33     0.152 C 
BRANCH  39  40
HETATM   40  C77   D T 401       8.399   3.421  10.969  1.00 76.44     0.088 A 
HETATM   41  C80   D T 401       9.777   3.178  11.005  1.00 78.25     0.053 A 
HETATM   42  S81   D T 401      10.542   3.971   9.673  1.00 82.00    -0.070 SA
HETATM   43  C82   D T 401       9.016   4.598   9.098  1.00 80.73     0.088 A 
HETATM   44  N83   D T 401       7.997   4.195   9.912  1.00 78.96    -0.245 NA
BRANCH  43  45
HETATM   45  C85   D T 401       9.026   5.428   7.865  1.00 81.61     0.047 C 
HETATM   46  C86   D T 401       8.214   6.717   8.047  1.00 81.16     0.007 C 
HETATM   47  C90   D T 401       8.531   4.577   6.683  1.00 82.31     0.007 C 
ENDBRANCH  43  45
ENDBRANCH  39  40
ENDBRANCH  36  39
ENDBRANCH  33  34
BRANCH  33  48
HETATM   48  C62   D T 401       3.096   1.307   8.879  1.00 64.68     0.032 C 
HETATM   49  C64   D T 401       3.845   2.145   7.859  1.00 64.29     0.003 C 
HETATM   50  C68   D T 401       3.694  -0.095   8.977  1.00 63.77     0.003 C 
ENDBRANCH  33  48
ENDBRANCH  31  33
ENDBRANCH   1  30
TORSDOF 18
ENDMDL
