MODEL 1
REMARK VINA RESULT:   -10.224      0.000      0.000
REMARK INTER + INTRA:         -14.006
REMARK INTER:                 -13.212
REMARK INTRA:                  -0.793
REMARK UNBOUND:                -0.793
REMARK  5 active torsions:
REMARK  status: ('A' for Active; 'I' for Inactive)
REMARK       I    between atoms: N1_1  and  C25_25 
REMARK       I    between atoms: N5_5  and  C6_6 
REMARK    1  A    between atoms: C6_6  and  C7_7 
REMARK    2  A    between atoms: N17_17  and  C24_24 
REMARK    3  A    between atoms: C25_25  and  C20_32 
REMARK    4  A    between atoms: C27_27  and  C20_32 
REMARK    5  A    between atoms: C20_32  and  O34_35 
ROOT
HETATM    1  N1    D T 404      -3.970  -0.736   9.888  1.00 17.40    -0.308 N 
HETATM    2  N2    D T 404      -6.467  -3.009   8.820  1.00 15.80    -0.149 NA
HETATM    3  C3    D T 404      -4.946  -4.191  10.118  1.00 20.99     0.186 A 
HETATM    4  N4    D T 404      -6.134  -4.193   9.331  1.00 14.98    -0.129 NA
HETATM    5  N5    D T 404      -4.488  -5.219  10.653  1.00 14.25    -0.187 NA
HETATM    6  C6    D T 404      -3.325  -5.410  11.279  1.00 20.91     0.281 C 
HETATM    7  O8    D T 404      -2.504  -4.473  11.405  1.00 20.64    -0.265 OA
HETATM    8  C13   D T 404      -5.660  -2.232   9.169  1.00 15.72     0.104 A 
HETATM    9  C14   D T 404      -4.576  -3.019  10.087  1.00 16.99     0.055 A 
HETATM   10  C15   D T 404      -3.612  -2.111  10.521  1.00 11.92     0.136 A 
HETATM   11  C16   D T 404      -5.301  -0.858   9.091  1.00 12.55     0.152 A 
HETATM   12  C25   D T 404      -3.142   0.668  10.162  1.00 17.08     0.266 C 
HETATM   13  O26   D T 404      -3.595   1.707   9.614  1.00 18.79    -0.269 OA
ENDROOT
BRANCH   6  14
HETATM   14  C7    D T 404      -2.890  -6.624  11.843  1.00 20.72     0.058 A 
HETATM   15  C9    D T 404      -1.511  -6.880  12.048  1.00 20.76     0.006 A 
HETATM   16  C10   D T 404      -1.084  -8.104  12.606  1.00 23.27     0.017 A 
HETATM   17  C24   D T 404      -2.005  -9.102  12.984  1.00 27.37     0.056 A 
HETATM   18  C11   D T 404      -3.399  -8.835  12.777  1.00 25.87     0.017 A 
HETATM   19  C12   D T 404      -3.825  -7.619  12.218  1.00 22.35     0.006 A 
BRANCH  17  20
HETATM   20  N17   D T 404      -1.547 -10.282  13.537  1.00 26.72    -0.344 N 
HETATM   21  C18   D T 404      -0.456 -11.039  12.961  1.00 27.97     0.137 C 
HETATM   22  C19   D T 404      -1.022 -12.253  12.125  1.00 27.41     0.274 C 
HETATM   23  N20   D T 404      -2.040 -13.056  12.906  1.00 25.74     0.143 N 
HETATM   24  C21   D T 404      -3.097 -12.186  13.497  1.00 25.73     0.274 C 
HETATM   25  C23   D T 404      -2.659 -14.177  12.094  1.00 22.56     0.286 C 
HETATM   26  C22   D T 404      -2.448 -11.070  14.368  1.00 25.35     0.137 C 
ENDBRANCH  17  20
ENDBRANCH   6  14
BRANCH  12  27
HETATM   27  C20   D T 404      -2.057   0.734  10.915  1.00 16.20     0.216 C 
BRANCH  27  28
HETATM   28  C27   D T 404      -0.939   0.002  10.319  1.00 15.98     0.014 A 
HETATM   29  C28   D T 404      -0.414   0.347   9.131  1.00 17.50    -0.001 A 
HETATM   30  C31   D T 404       0.679  -0.375   8.584  1.00 22.04    -0.000 A 
HETATM   31  C35   D T 404       1.237  -1.470   9.284  1.00 17.01    -0.000 A 
HETATM   32  C33   D T 404       0.698  -1.836  10.502  1.00 16.34    -0.000 A 
HETATM   33  C29   D T 404      -0.350  -1.136  11.029  1.00 14.11    -0.001 A 
ENDBRANCH  27  28
BRANCH  27  34
HETATM   34  O34   D T 404      -1.714   2.095  11.251  1.00 16.74    -0.340 OA
HETATM   35  C36   D T 404      -0.643   2.255  12.251  1.00 18.61     0.175 C 
ENDBRANCH  27  34
ENDBRANCH  12  27
TORSDOF 5
ENDMDL
MODEL 2
REMARK VINA RESULT:    -9.964      1.028      1.943
REMARK INTER + INTRA:         -13.670
REMARK INTER:                 -12.846
REMARK INTRA:                  -0.824
REMARK UNBOUND:                -0.793
REMARK  5 active torsions:
REMARK  status: ('A' for Active; 'I' for Inactive)
REMARK       I    between atoms: N1_1  and  C25_25 
REMARK       I    between atoms: N5_5  and  C6_6 
REMARK    1  A    between atoms: C6_6  and  C7_7 
REMARK    2  A    between atoms: N17_17  and  C24_24 
REMARK    3  A    between atoms: C25_25  and  C20_32 
REMARK    4  A    between atoms: C27_27  and  C20_32 
REMARK    5  A    between atoms: C20_32  and  O34_35 
ROOT
HETATM    1  N1    D T 404      -4.140  -0.906   9.914  1.00 17.40    -0.308 N 
HETATM    2  N2    D T 404      -6.562  -3.274   8.881  1.00 15.80    -0.149 NA
HETATM    3  C3    D T 404      -4.976  -4.397  10.154  1.00 20.99     0.186 A 
HETATM    4  N4    D T 404      -6.174  -4.445   9.385  1.00 14.98    -0.129 NA
HETATM    5  N5    D T 404      -4.469  -5.407  10.680  1.00 14.25    -0.187 NA
HETATM    6  C6    D T 404      -3.290  -5.553  11.287  1.00 20.91     0.281 C 
HETATM    7  O8    D T 404      -2.505  -4.585  11.402  1.00 20.64    -0.265 OA
HETATM    8  C13   D T 404      -5.780  -2.467   9.219  1.00 15.72     0.104 A 
HETATM    9  C14   D T 404      -4.653  -3.212  10.118  1.00 16.99     0.055 A 
HETATM   10  C15   D T 404      -3.718  -2.267  10.540  1.00 11.92     0.136 A 
HETATM   11  C16   D T 404      -5.477  -1.080   9.137  1.00 12.55     0.152 A 
HETATM   12  C25   D T 404      -3.363   0.529  10.178  1.00 17.08     0.266 C 
HETATM   13  O26   D T 404      -3.865   1.549   9.639  1.00 18.79    -0.269 OA
ENDROOT
BRANCH   6  14
HETATM   14  C7    D T 404      -2.799  -6.750  11.842  1.00 20.72     0.058 A 
HETATM   15  C9    D T 404      -1.406  -6.977  11.970  1.00 20.76     0.006 A 
HETATM   16  C10   D T 404      -0.923  -8.184  12.520  1.00 23.27     0.017 A 
HETATM   17  C24   D T 404      -1.801  -9.192  12.966  1.00 27.37     0.056 A 
HETATM   18  C11   D T 404      -3.209  -8.955  12.837  1.00 25.87     0.017 A 
HETATM   19  C12   D T 404      -3.691  -7.756  12.286  1.00 22.35     0.006 A 
BRANCH  17  20
HETATM   20  N17   D T 404      -1.288 -10.355  13.508  1.00 26.72    -0.344 N 
HETATM   21  C18   D T 404      -2.129 -11.379  14.088  1.00 27.97     0.137 C 
HETATM   22  C19   D T 404      -2.124 -11.257  15.662  1.00 27.41     0.274 C 
HETATM   23  N20   D T 404      -0.721 -11.162  16.221  1.00 25.74     0.143 N 
HETATM   24  C21   D T 404       0.082 -10.112  15.531  1.00 25.73     0.274 C 
HETATM   25  C23   D T 404      -0.694 -10.959  17.723  1.00 22.56     0.286 C 
HETATM   26  C22   D T 404       0.085 -10.362  13.994  1.00 25.35     0.137 C 
ENDBRANCH  17  20
ENDBRANCH   6  14
BRANCH  12  27
HETATM   27  C20   D T 404      -2.270   0.636  10.914  1.00 16.20     0.216 C 
BRANCH  27  28
HETATM   28  C27   D T 404      -1.111   0.032  10.255  1.00 15.98     0.014 A 
HETATM   29  C28   D T 404      -0.475  -1.034  10.770  1.00 17.50    -0.001 A 
HETATM   30  C31   D T 404       0.638  -1.607  10.101  1.00 22.04    -0.000 A 
HETATM   31  C35   D T 404       1.097  -1.064   8.878  1.00 17.01    -0.000 A 
HETATM   32  C33   D T 404       0.454   0.037   8.347  1.00 16.34    -0.000 A 
HETATM   33  C29   D T 404      -0.622   0.582   8.989  1.00 14.11    -0.001 A 
ENDBRANCH  27  28
BRANCH  27  34
HETATM   34  O34   D T 404      -2.027   1.999  11.325  1.00 16.74    -0.340 OA
HETATM   35  C36   D T 404      -0.790   2.222  12.095  1.00 18.61     0.175 C 
ENDBRANCH  27  34
ENDBRANCH  12  27
TORSDOF 5
ENDMDL
MODEL 3
REMARK VINA RESULT:    -9.057      3.255     10.935
REMARK INTER + INTRA:         -12.498
REMARK INTER:                 -11.848
REMARK INTRA:                  -0.650
REMARK UNBOUND:                -0.793
REMARK  5 active torsions:
REMARK  status: ('A' for Active; 'I' for Inactive)
REMARK       I    between atoms: N1_1  and  C25_25 
REMARK       I    between atoms: N5_5  and  C6_6 
REMARK    1  A    between atoms: C6_6  and  C7_7 
REMARK    2  A    between atoms: N17_17  and  C24_24 
REMARK    3  A    between atoms: C25_25  and  C20_32 
REMARK    4  A    between atoms: C27_27  and  C20_32 
REMARK    5  A    between atoms: C20_32  and  O34_35 
ROOT
HETATM    1  N1    D T 404       0.211  -9.685  12.775  1.00 17.40    -0.308 N 
HETATM    2  N2    D T 404       2.379  -6.913  12.378  1.00 15.80    -0.149 NA
HETATM    3  C3    D T 404       0.212  -6.174  11.987  1.00 20.99     0.186 A 
HETATM    4  N4    D T 404       1.603  -5.878  12.060  1.00 14.98    -0.129 NA
HETATM    5  N5    D T 404      -0.647  -5.323  11.685  1.00 14.25    -0.187 NA
HETATM    6  C6    D T 404      -1.947  -5.475  11.427  1.00 20.91     0.281 C 
HETATM    7  O8    D T 404      -2.481  -6.606  11.475  1.00 20.64    -0.265 OA
HETATM    8  C13   D T 404       1.682  -7.846  12.527  1.00 15.72     0.104 A 
HETATM    9  C14   D T 404       0.152  -7.370  12.267  1.00 16.99     0.055 A 
HETATM   10  C15   D T 404      -0.695  -8.463  12.449  1.00 11.92     0.136 A 
HETATM   11  C16   D T 404       1.695  -9.227  12.866  1.00 12.55     0.152 A 
HETATM   12  C25   D T 404      -0.349 -11.200  13.127  1.00 17.08     0.266 C 
HETATM   13  O26   D T 404       0.516 -12.066  13.421  1.00 18.79    -0.269 OA
ENDROOT
BRANCH   6  14
HETATM   14  C7    D T 404      -2.837  -4.442  11.078  1.00 20.72     0.058 A 
HETATM   15  C9    D T 404      -4.111  -4.731  10.529  1.00 20.76     0.006 A 
HETATM   16  C10   D T 404      -4.994  -3.688  10.175  1.00 23.27     0.017 A 
HETATM   17  C24   D T 404      -4.646  -2.335  10.361  1.00 27.37     0.056 A 
HETATM   18  C11   D T 404      -3.357  -2.049  10.920  1.00 25.87     0.017 A 
HETATM   19  C12   D T 404      -2.476  -3.086  11.269  1.00 22.35     0.006 A 
BRANCH  17  20
HETATM   20  N17   D T 404      -5.543  -1.344  10.011  1.00 26.72    -0.344 N 
HETATM   21  C18   D T 404      -5.706  -0.889   8.647  1.00 27.97     0.137 C 
HETATM   22  C19   D T 404      -4.921   0.463   8.431  1.00 27.41     0.274 C 
HETATM   23  N20   D T 404      -5.233   1.481   9.506  1.00 25.74     0.143 N 
HETATM   24  C21   D T 404      -5.081   0.908  10.874  1.00 25.73     0.274 C 
HETATM   25  C23   D T 404      -4.426   2.758   9.366  1.00 22.56     0.286 C 
HETATM   26  C22   D T 404      -5.953  -0.374  11.018  1.00 25.35     0.137 C 
ENDBRANCH  17  20
ENDBRANCH   6  14
BRANCH  12  27
HETATM   27  C20   D T 404      -1.631 -11.520  13.113  1.00 16.20     0.216 C 
BRANCH  27  28
HETATM   28  C27   D T 404      -1.871 -12.768  12.386  1.00 15.98     0.014 A 
HETATM   29  C28   D T 404      -2.604 -13.766  12.908  1.00 17.50    -0.001 A 
HETATM   30  C31   D T 404      -2.830 -14.960  12.174  1.00 22.04    -0.000 A 
HETATM   31  C35   D T 404      -2.286 -15.118  10.878  1.00 17.01    -0.000 A 
HETATM   32  C33   D T 404      -1.524 -14.100  10.338  1.00 16.34    -0.000 A 
HETATM   33  C29   D T 404      -1.314 -12.949  11.044  1.00 14.11    -0.001 A 
ENDBRANCH  27  28
BRANCH  27  34
HETATM   34  O34   D T 404      -2.200 -11.531  14.439  1.00 16.74    -0.340 OA
HETATM   35  C36   D T 404      -3.257 -10.534  14.689  1.00 18.61     0.175 C 
ENDBRANCH  27  34
ENDBRANCH  12  27
TORSDOF 5
ENDMDL
MODEL 4
REMARK VINA RESULT:    -8.649      1.958      2.769
REMARK INTER + INTRA:         -11.971
REMARK INTER:                 -11.411
REMARK INTRA:                  -0.559
REMARK UNBOUND:                -0.793
REMARK  5 active torsions:
REMARK  status: ('A' for Active; 'I' for Inactive)
REMARK       I    between atoms: N1_1  and  C25_25 
REMARK       I    between atoms: N5_5  and  C6_6 
REMARK    1  A    between atoms: C6_6  and  C7_7 
REMARK    2  A    between atoms: N17_17  and  C24_24 
REMARK    3  A    between atoms: C25_25  and  C20_32 
REMARK    4  A    between atoms: C27_27  and  C20_32 
REMARK    5  A    between atoms: C20_32  and  O34_35 
ROOT
HETATM    1  N1    D T 404      -2.027  -0.225  10.668  1.00 17.40    -0.308 N 
HETATM    2  N2    D T 404      -5.280  -1.557  10.231  1.00 15.80    -0.149 NA
HETATM    3  C3    D T 404      -3.907  -3.278  10.972  1.00 20.99     0.186 A 
HETATM    4  N4    D T 404      -5.200  -2.846  10.557  1.00 14.98    -0.129 NA
HETATM    5  N5    D T 404      -3.659  -4.456  11.294  1.00 14.25    -0.187 NA
HETATM    6  C6    D T 404      -2.488  -5.043  11.550  1.00 20.91     0.281 C 
HETATM    7  O8    D T 404      -1.420  -4.394  11.489  1.00 20.64    -0.265 OA
HETATM    8  C13   D T 404      -4.214  -1.087  10.379  1.00 15.72     0.104 A 
HETATM    9  C14   D T 404      -3.222  -2.260  10.902  1.00 16.99     0.055 A 
HETATM   10  C15   D T 404      -1.950  -1.720  11.094  1.00 11.92     0.136 A 
HETATM   11  C16   D T 404      -3.490   0.133  10.279  1.00 12.55     0.152 A 
HETATM   12  C25   D T 404      -0.772   0.846  10.774  1.00 17.08     0.266 C 
HETATM   13  O26   D T 404      -1.016   2.034  10.438  1.00 18.79    -0.269 OA
ENDROOT
BRANCH   6  14
HETATM   14  C7    D T 404      -2.311  -6.396  11.896  1.00 20.72     0.058 A 
HETATM   15  C9    D T 404      -1.013  -6.948  12.038  1.00 20.76     0.006 A 
HETATM   16  C10   D T 404      -0.845  -8.308  12.377  1.00 23.27     0.017 A 
HETATM   17  C24   D T 404      -1.951  -9.154  12.594  1.00 27.37     0.056 A 
HETATM   18  C11   D T 404      -3.261  -8.588  12.452  1.00 25.87     0.017 A 
HETATM   19  C12   D T 404      -3.430  -7.237  12.111  1.00 22.35     0.006 A 
BRANCH  17  20
HETATM   20  N17   D T 404      -1.744 -10.477  12.935  1.00 26.72    -0.344 N 
HETATM   21  C18   D T 404      -2.810 -11.336  13.403  1.00 27.97     0.137 C 
HETATM   22  C19   D T 404      -2.754 -11.461  14.975  1.00 27.41     0.274 C 
HETATM   23  N20   D T 404      -1.366 -11.806  15.469  1.00 25.74     0.143 N 
HETATM   24  C21   D T 404      -0.331 -10.896  14.900  1.00 25.73     0.274 C 
HETATM   25  C23   D T 404      -1.269 -11.848  16.983  1.00 22.56     0.286 C 
HETATM   26  C22   D T 404      -0.411 -10.901  13.344  1.00 25.35     0.137 C 
ENDBRANCH  17  20
ENDBRANCH   6  14
BRANCH  12  27
HETATM   27  C20   D T 404       0.436   0.507  11.188  1.00 16.20     0.216 C 
BRANCH  27  28
HETATM   28  C27   D T 404       1.454   1.449  10.720  1.00 15.98     0.014 A 
HETATM   29  C28   D T 404       1.781   2.549  11.418  1.00 17.50    -0.001 A 
HETATM   30  C31   D T 404       2.781   3.438  10.945  1.00 22.04    -0.000 A 
HETATM   31  C35   D T 404       3.452   3.178   9.727  1.00 17.01    -0.000 A 
HETATM   32  C33   D T 404       3.116   2.054   8.999  1.00 16.34    -0.000 A 
HETATM   33  C29   D T 404       2.158   1.196   9.461  1.00 14.11    -0.001 A 
ENDBRANCH  27  28
BRANCH  27  34
HETATM   34  O34   D T 404       0.481   0.305  12.617  1.00 16.74    -0.340 OA
HETATM   35  C36   D T 404       1.487  -0.661  13.093  1.00 18.61     0.175 C 
ENDBRANCH  27  34
ENDBRANCH  12  27
TORSDOF 5
ENDMDL
MODEL 5
REMARK VINA RESULT:    -8.480      1.918      2.467
REMARK INTER + INTRA:         -11.752
REMARK INTER:                 -11.245
REMARK INTRA:                  -0.507
REMARK UNBOUND:                -0.793
REMARK  5 active torsions:
REMARK  status: ('A' for Active; 'I' for Inactive)
REMARK       I    between atoms: N1_1  and  C25_25 
REMARK       I    between atoms: N5_5  and  C6_6 
REMARK    1  A    between atoms: C6_6  and  C7_7 
REMARK    2  A    between atoms: N17_17  and  C24_24 
REMARK    3  A    between atoms: C25_25  and  C20_32 
REMARK    4  A    between atoms: C27_27  and  C20_32 
REMARK    5  A    between atoms: C20_32  and  O34_35 
ROOT
HETATM    1  N1    D T 404      -1.790  -0.579  10.753  1.00 17.40    -0.308 N 
HETATM    2  N2    D T 404      -4.957  -2.125  10.407  1.00 15.80    -0.149 NA
HETATM    3  C3    D T 404      -3.459  -3.743  11.138  1.00 20.99     0.186 A 
HETATM    4  N4    D T 404      -4.786  -3.401  10.748  1.00 14.98    -0.129 NA
HETATM    5  N5    D T 404      -3.128  -4.898  11.470  1.00 14.25    -0.187 NA
HETATM    6  C6    D T 404      -1.916  -5.403  11.706  1.00 20.91     0.281 C 
HETATM    7  O8    D T 404      -0.894  -4.687  11.613  1.00 20.64    -0.265 OA
HETATM    8  C13   D T 404      -3.922  -1.585  10.524  1.00 15.72     0.104 A 
HETATM    9  C14   D T 404      -2.844  -2.683  11.040  1.00 16.99     0.055 A 
HETATM   10  C15   D T 404      -1.606  -2.059  11.196  1.00 11.92     0.136 A 
HETATM   11  C16   D T 404      -3.282  -0.322  10.392  1.00 12.55     0.152 A 
HETATM   12  C25   D T 404      -0.606   0.573  10.816  1.00 17.08     0.266 C 
HETATM   13  O26   D T 404      -0.934   1.738  10.471  1.00 18.79    -0.269 OA
ENDROOT
BRANCH   6  14
HETATM   14  C7    D T 404      -1.643  -6.737  12.066  1.00 20.72     0.058 A 
HETATM   15  C9    D T 404      -0.319  -7.241  12.047  1.00 20.76     0.006 A 
HETATM   16  C10   D T 404      -0.056  -8.581  12.401  1.00 23.27     0.017 A 
HETATM   17  C24   D T 404      -1.090  -9.456  12.791  1.00 27.37     0.056 A 
HETATM   18  C11   D T 404      -2.428  -8.939  12.811  1.00 25.87     0.017 A 
HETATM   19  C12   D T 404      -2.691  -7.606  12.455  1.00 22.35     0.006 A 
BRANCH  17  20
HETATM   20  N17   D T 404      -0.790 -10.759  13.140  1.00 26.72    -0.344 N 
HETATM   21  C18   D T 404       0.027 -11.617  12.309  1.00 27.97     0.137 C 
HETATM   22  C19   D T 404      -0.890 -12.598  11.479  1.00 27.41     0.274 C 
HETATM   23  N20   D T 404      -1.909 -13.300  12.352  1.00 25.74     0.143 N 
HETATM   24  C21   D T 404      -2.668 -12.339  13.202  1.00 25.73     0.274 C 
HETATM   25  C23   D T 404      -2.856 -14.184  11.562  1.00 22.56     0.286 C 
HETATM   26  C22   D T 404      -1.683 -11.472  14.042  1.00 25.35     0.137 C 
ENDBRANCH  17  20
ENDBRANCH   6  14
BRANCH  12  27
HETATM   27  C20   D T 404       0.631   0.319  11.207  1.00 16.20     0.216 C 
BRANCH  27  28
HETATM   28  C27   D T 404       1.588   1.259  10.622  1.00 15.98     0.014 A 
HETATM   29  C28   D T 404       1.953   2.388  11.252  1.00 17.50    -0.001 A 
HETATM   30  C31   D T 404       2.894   3.275  10.665  1.00 22.04    -0.000 A 
HETATM   31  C35   D T 404       3.464   2.982   9.404  1.00 17.01    -0.000 A 
HETATM   32  C33   D T 404       3.088   1.828   8.746  1.00 16.34    -0.000 A 
HETATM   33  C29   D T 404       2.188   0.973   9.316  1.00 14.11    -0.001 A 
ENDBRANCH  27  28
BRANCH  27  34
HETATM   34  O34   D T 404       0.738   0.239  12.644  1.00 16.74    -0.340 OA
HETATM   35  C36   D T 404       1.723  -0.730  13.158  1.00 18.61     0.175 C 
ENDBRANCH  27  34
ENDBRANCH  12  27
TORSDOF 5
ENDMDL
MODEL 6
REMARK VINA RESULT:    -8.424      4.017     10.376
REMARK INTER + INTRA:         -11.680
REMARK INTER:                 -10.824
REMARK INTRA:                  -0.856
REMARK UNBOUND:                -0.793
REMARK  5 active torsions:
REMARK  status: ('A' for Active; 'I' for Inactive)
REMARK       I    between atoms: N1_1  and  C25_25 
REMARK       I    between atoms: N5_5  and  C6_6 
REMARK    1  A    between atoms: C6_6  and  C7_7 
REMARK    2  A    between atoms: N17_17  and  C24_24 
REMARK    3  A    between atoms: C25_25  and  C20_32 
REMARK    4  A    between atoms: C27_27  and  C20_32 
REMARK    5  A    between atoms: C20_32  and  O34_35 
ROOT
HETATM    1  N1    D T 404       3.185  -7.075  12.649  1.00 17.40    -0.308 N 
HETATM    2  N2    D T 404       4.438  -4.153  11.089  1.00 15.80    -0.149 NA
HETATM    3  C3    D T 404       2.140  -3.900  11.318  1.00 20.99     0.186 A 
HETATM    4  N4    D T 404       3.384  -3.367  10.873  1.00 14.98    -0.129 NA
HETATM    5  N5    D T 404       1.057  -3.300  11.176  1.00 14.25    -0.187 NA
HETATM    6  C6    D T 404      -0.189  -3.724  11.393  1.00 20.91     0.281 C 
HETATM    7  O8    D T 404      -0.408  -4.884  11.808  1.00 20.64    -0.265 OA
HETATM    8  C13   D T 404       4.051  -5.127  11.618  1.00 15.72     0.104 A 
HETATM    9  C14   D T 404       2.444  -4.989  11.801  1.00 16.99     0.055 A 
HETATM   10  C15   D T 404       1.965  -6.133  12.438  1.00 11.92     0.136 A 
HETATM   11  C16   D T 404       4.483  -6.367  12.164  1.00 12.55     0.152 A 
HETATM   12  C25   D T 404       3.121  -8.536  13.420  1.00 17.08     0.266 C 
HETATM   13  O26   D T 404       4.211  -9.151  13.555  1.00 18.79    -0.269 OA
ENDROOT
BRANCH   6  14
HETATM   14  C7    D T 404      -1.358  -2.966  11.188  1.00 20.72     0.058 A 
HETATM   15  C9    D T 404      -2.639  -3.570  11.248  1.00 20.76     0.006 A 
HETATM   16  C10   D T 404      -3.804  -2.803  11.032  1.00 23.27     0.017 A 
HETATM   17  C24   D T 404      -3.737  -1.422  10.761  1.00 27.37     0.056 A 
HETATM   18  C11   D T 404      -2.438  -0.816  10.705  1.00 25.87     0.017 A 
HETATM   19  C12   D T 404      -1.277  -1.578  10.915  1.00 22.35     0.006 A 
BRANCH  17  20
HETATM   20  N17   D T 404      -4.902  -0.705  10.566  1.00 26.72    -0.344 N 
HETATM   21  C18   D T 404      -5.763  -0.917   9.424  1.00 27.97     0.137 C 
HETATM   22  C19   D T 404      -5.506   0.200   8.338  1.00 27.41     0.274 C 
HETATM   23  N20   D T 404      -5.534   1.591   8.934  1.00 25.74     0.143 N 
HETATM   24  C21   D T 404      -4.651   1.699  10.131  1.00 25.73     0.274 C 
HETATM   25  C23   D T 404      -5.205   2.674   7.925  1.00 22.56     0.286 C 
HETATM   26  C22   D T 404      -5.033   0.610  11.178  1.00 25.35     0.137 C 
ENDBRANCH  17  20
ENDBRANCH   6  14
BRANCH  12  27
HETATM   27  C20   D T 404       2.000  -9.060  13.886  1.00 16.20     0.216 C 
BRANCH  27  28
HETATM   28  C27   D T 404       1.253  -9.760  12.841  1.00 15.98     0.014 A 
HETATM   29  C28   D T 404       1.643 -10.955  12.366  1.00 17.50    -0.001 A 
HETATM   30  C31   D T 404       0.891 -11.617  11.360  1.00 22.04    -0.000 A 
HETATM   31  C35   D T 404      -0.285 -11.027  10.841  1.00 17.01    -0.000 A 
HETATM   32  C33   D T 404      -0.688  -9.795  11.317  1.00 16.34    -0.000 A 
HETATM   33  C29   D T 404       0.034  -9.164  12.290  1.00 14.11    -0.001 A 
ENDBRANCH  27  28
BRANCH  27  34
HETATM   34  O34   D T 404       2.232  -9.882  15.050  1.00 16.74    -0.340 OA
HETATM   35  C36   D T 404       1.591  -9.421  16.295  1.00 18.61     0.175 C 
ENDBRANCH  27  34
ENDBRANCH  12  27
TORSDOF 5
ENDMDL
MODEL 7
REMARK VINA RESULT:    -8.399      6.930     13.125
REMARK INTER + INTRA:         -11.647
REMARK INTER:                 -10.954
REMARK INTRA:                  -0.693
REMARK UNBOUND:                -0.793
REMARK  5 active torsions:
REMARK  status: ('A' for Active; 'I' for Inactive)
REMARK       I    between atoms: N1_1  and  C25_25 
REMARK       I    between atoms: N5_5  and  C6_6 
REMARK    1  A    between atoms: C6_6  and  C7_7 
REMARK    2  A    between atoms: N17_17  and  C24_24 
REMARK    3  A    between atoms: C25_25  and  C20_32 
REMARK    4  A    between atoms: C27_27  and  C20_32 
REMARK    5  A    between atoms: C20_32  and  O34_35 
ROOT
HETATM    1  N1    D T 404       0.251  -0.730   9.889  1.00 17.40    -0.308 N 
HETATM    2  N2    D T 404       3.292  -2.491   9.450  1.00 15.80    -0.149 NA
HETATM    3  C3    D T 404       3.725  -0.237   9.094  1.00 20.99     0.186 A 
HETATM    4  N4    D T 404       4.209  -1.576   9.142  1.00 14.98    -0.129 NA
HETATM    5  N5    D T 404       4.450   0.735   8.803  1.00 14.25    -0.187 NA
HETATM    6  C6    D T 404       4.120   2.005   8.567  1.00 20.91     0.281 C 
HETATM    7  O8    D T 404       2.926   2.379   8.628  1.00 20.64    -0.265 OA
HETATM    8  C13   D T 404       2.273  -1.931   9.613  1.00 15.72     0.104 A 
HETATM    9  C14   D T 404       2.533  -0.347   9.377  1.00 16.99     0.055 A 
HETATM   10  C15   D T 404       1.336   0.340   9.576  1.00 11.92     0.136 A 
HETATM   11  C16   D T 404       0.908  -2.139   9.955  1.00 12.55     0.152 A 
HETATM   12  C25   D T 404      -1.325  -0.388  10.255  1.00 17.08     0.266 C 
HETATM   13  O26   D T 404      -2.063  -1.369  10.537  1.00 18.79    -0.269 OA
ENDROOT
BRANCH   6  14
HETATM   14  C7    D T 404       5.020   3.034   8.231  1.00 20.72     0.058 A 
HETATM   15  C9    D T 404       6.419   2.813   8.246  1.00 20.76     0.006 A 
HETATM   16  C10   D T 404       7.314   3.853   7.916  1.00 23.27     0.017 A 
HETATM   17  C24   D T 404       6.852   5.134   7.554  1.00 27.37     0.056 A 
HETATM   18  C11   D T 404       5.435   5.351   7.538  1.00 25.87     0.017 A 
HETATM   19  C12   D T 404       4.543   4.318   7.870  1.00 22.35     0.006 A 
BRANCH  17  20
HETATM   20  N17   D T 404       7.761   6.122   7.228  1.00 26.72    -0.344 N 
HETATM   21  C18   D T 404       9.186   5.881   7.172  1.00 27.97     0.137 C 
HETATM   22  C19   D T 404       9.876   6.403   8.492  1.00 27.41     0.274 C 
HETATM   23  N20   D T 404       9.461   7.819   8.828  1.00 25.74     0.143 N 
HETATM   24  C21   D T 404       7.979   7.981   8.818  1.00 25.73     0.274 C 
HETATM   25  C23   D T 404      10.046   8.312  10.138  1.00 22.56     0.286 C 
HETATM   26  C22   D T 404       7.399   7.516   7.449  1.00 25.35     0.137 C 
ENDBRANCH  17  20
ENDBRANCH   6  14
BRANCH  12  27
HETATM   27  C20   D T 404      -1.817   0.838  10.263  1.00 16.20     0.216 C 
BRANCH  27  28
HETATM   28  C27   D T 404      -3.135   0.897   9.630  1.00 15.98     0.014 A 
HETATM   29  C28   D T 404      -3.283   1.116   8.312  1.00 17.50    -0.001 A 
HETATM   30  C31   D T 404      -4.575   1.155   7.724  1.00 22.04    -0.000 A 
HETATM   31  C35   D T 404      -5.730   0.963   8.518  1.00 17.01    -0.000 A 
HETATM   32  C33   D T 404      -5.587   0.746   9.874  1.00 16.34    -0.000 A 
HETATM   33  C29   D T 404      -4.342   0.701  10.436  1.00 14.11    -0.001 A 
ENDBRANCH  27  28
BRANCH  27  34
HETATM   34  O34   D T 404      -1.810   1.415  11.586  1.00 16.74    -0.340 OA
HETATM   35  C36   D T 404      -0.674   2.304  11.888  1.00 18.61     0.175 C 
ENDBRANCH  27  34
ENDBRANCH  12  27
TORSDOF 5
ENDMDL
MODEL 8
REMARK VINA RESULT:    -8.360      5.149      8.034
REMARK INTER + INTRA:         -11.597
REMARK INTER:                 -11.190
REMARK INTRA:                  -0.407
REMARK UNBOUND:                -0.793
REMARK  5 active torsions:
REMARK  status: ('A' for Active; 'I' for Inactive)
REMARK       I    between atoms: N1_1  and  C25_25 
REMARK       I    between atoms: N5_5  and  C6_6 
REMARK    1  A    between atoms: C6_6  and  C7_7 
REMARK    2  A    between atoms: N17_17  and  C24_24 
REMARK    3  A    between atoms: C25_25  and  C20_32 
REMARK    4  A    between atoms: C27_27  and  C20_32 
REMARK    5  A    between atoms: C20_32  and  O34_35 
ROOT
HETATM    1  N1    D T 404      -2.832  -2.211  10.946  1.00 17.40    -0.308 N 
HETATM    2  N2    D T 404      -2.398  -5.572  11.973  1.00 15.80    -0.149 NA
HETATM    3  C3    D T 404      -0.311  -4.741  11.380  1.00 20.99     0.186 A 
HETATM    4  N4    D T 404      -1.097  -5.832  11.851  1.00 14.98    -0.129 NA
HETATM    5  N5    D T 404       0.919  -4.824  11.195  1.00 14.25    -0.187 NA
HETATM    6  C6    D T 404       1.755  -3.957  10.621  1.00 20.91     0.281 C 
HETATM    7  O8    D T 404       1.339  -2.864  10.176  1.00 20.64    -0.265 OA
HETATM    8  C13   D T 404      -2.568  -4.457  11.649  1.00 15.72     0.104 A 
HETATM    9  C14   D T 404      -1.129  -3.835  11.230  1.00 16.99     0.055 A 
HETATM   10  C15   D T 404      -1.307  -2.505  10.850  1.00 11.92     0.136 A 
HETATM   11  C16   D T 404      -3.572  -3.459  11.507  1.00 12.55     0.152 A 
HETATM   12  C25   D T 404      -3.523  -0.739  10.647  1.00 17.08     0.266 C 
HETATM   13  O26   D T 404      -4.767  -0.655  10.822  1.00 18.79    -0.269 OA
ENDROOT
BRANCH   6  14
HETATM   14  C7    D T 404       3.138  -4.151  10.446  1.00 20.72     0.058 A 
HETATM   15  C9    D T 404       3.645  -4.775   9.279  1.00 20.76     0.006 A 
HETATM   16  C10   D T 404       5.033  -4.973   9.116  1.00 23.27     0.017 A 
HETATM   17  C24   D T 404       5.957  -4.553  10.095  1.00 27.37     0.056 A 
HETATM   18  C11   D T 404       5.437  -3.920  11.272  1.00 25.87     0.017 A 
HETATM   19  C12   D T 404       4.056  -3.726  11.438  1.00 22.35     0.006 A 
BRANCH  17  20
HETATM   20  N17   D T 404       7.308  -4.756   9.893  1.00 26.72    -0.344 N 
HETATM   21  C18   D T 404       8.165  -5.343  10.900  1.00 27.97     0.137 C 
HETATM   22  C19   D T 404       8.974  -4.212  11.647  1.00 27.41     0.274 C 
HETATM   23  N20   D T 404       9.648  -3.261  10.681  1.00 25.74     0.143 N 
HETATM   24  C21   D T 404       8.696  -2.744   9.656  1.00 25.73     0.274 C 
HETATM   25  C23   D T 404      10.361  -2.117  11.376  1.00 22.56     0.286 C 
HETATM   26  C22   D T 404       8.008  -3.931   8.918  1.00 25.35     0.137 C 
ENDBRANCH  17  20
ENDBRANCH   6  14
BRANCH  12  27
HETATM   27  C20   D T 404      -2.836   0.316  10.246  1.00 16.20     0.216 C 
BRANCH  27  28
HETATM   28  C27   D T 404      -3.661   1.235   9.461  1.00 15.98     0.014 A 
HETATM   29  C28   D T 404      -3.731   2.547   9.741  1.00 17.50    -0.001 A 
HETATM   30  C31   D T 404      -4.531   3.416   8.953  1.00 22.04    -0.000 A 
HETATM   31  C35   D T 404      -5.268   2.912   7.856  1.00 17.01    -0.000 A 
HETATM   32  C33   D T 404      -5.208   1.564   7.566  1.00 16.34    -0.000 A 
HETATM   33  C29   D T 404      -4.432   0.731   8.322  1.00 14.11    -0.001 A 
ENDBRANCH  27  28
BRANCH  27  34
HETATM   34  O34   D T 404      -2.165   0.972  11.343  1.00 16.74    -0.340 OA
HETATM   35  C36   D T 404      -0.707   1.134  11.194  1.00 18.61     0.175 C 
ENDBRANCH  27  34
ENDBRANCH  12  27
TORSDOF 5
ENDMDL
MODEL 9
REMARK VINA RESULT:    -8.242      3.405      5.216
REMARK INTER + INTRA:         -11.444
REMARK INTER:                 -10.513
REMARK INTRA:                  -0.931
REMARK UNBOUND:                -0.793
REMARK  5 active torsions:
REMARK  status: ('A' for Active; 'I' for Inactive)
REMARK       I    between atoms: N1_1  and  C25_25 
REMARK       I    between atoms: N5_5  and  C6_6 
REMARK    1  A    between atoms: C6_6  and  C7_7 
REMARK    2  A    between atoms: N17_17  and  C24_24 
REMARK    3  A    between atoms: C25_25  and  C20_32 
REMARK    4  A    between atoms: C27_27  and  C20_32 
REMARK    5  A    between atoms: C20_32  and  O34_35 
ROOT
HETATM    1  N1    D T 404       1.170   1.589  10.139  1.00 17.40    -0.308 N 
HETATM    2  N2    D T 404       3.809  -0.222   8.623  1.00 15.80    -0.149 NA
HETATM    3  C3    D T 404       2.399  -1.757   9.650  1.00 20.99     0.186 A 
HETATM    4  N4    D T 404       3.577  -1.507   8.889  1.00 14.98    -0.129 NA
HETATM    5  N5    D T 404       2.048  -2.902   9.997  1.00 14.25    -0.187 NA
HETATM    6  C6    D T 404       1.076  -3.281  10.827  1.00 20.91     0.281 C 
HETATM    7  O8    D T 404       0.345  -2.433  11.389  1.00 20.64    -0.265 OA
HETATM    8  C13   D T 404       2.940   0.401   9.106  1.00 15.72     0.104 A 
HETATM    9  C14   D T 404       1.926  -0.637   9.832  1.00 16.99     0.055 A 
HETATM   10  C15   D T 404       0.878   0.084  10.405  1.00 11.92     0.136 A 
HETATM   11  C16   D T 404       2.452   1.728   9.268  1.00 12.55     0.152 A 
HETATM   12  C25   D T 404       0.172   2.830  10.582  1.00 17.08     0.266 C 
HETATM   13  O26   D T 404       0.529   3.989  10.243  1.00 18.79    -0.269 OA
ENDROOT
BRANCH   6  14
HETATM   14  C7    D T 404       0.764  -4.611  11.168  1.00 20.72     0.058 A 
HETATM   15  C9    D T 404       1.749  -5.475  11.709  1.00 20.76     0.006 A 
HETATM   16  C10   D T 404       1.430  -6.809  12.039  1.00 23.27     0.017 A 
HETATM   17  C24   D T 404       0.131  -7.323  11.853  1.00 27.37     0.056 A 
HETATM   18  C11   D T 404      -0.862  -6.443  11.308  1.00 25.87     0.017 A 
HETATM   19  C12   D T 404      -0.545  -5.116  10.975  1.00 22.35     0.006 A 
BRANCH  17  20
HETATM   20  N17   D T 404      -0.144  -8.632  12.199  1.00 26.72    -0.344 N 
HETATM   21  C18   D T 404      -1.494  -9.134  12.332  1.00 27.97     0.137 C 
HETATM   22  C19   D T 404      -1.902  -9.191  13.856  1.00 27.41     0.274 C 
HETATM   23  N20   D T 404      -0.854  -9.885  14.700  1.00 25.74     0.143 N 
HETATM   24  C21   D T 404       0.509  -9.330  14.461  1.00 25.73     0.274 C 
HETATM   25  C23   D T 404      -1.185  -9.876  16.180  1.00 22.56     0.286 C 
HETATM   26  C22   D T 404       0.853  -9.390  12.943  1.00 25.35     0.137 C 
ENDBRANCH  17  20
ENDBRANCH   6  14
BRANCH  12  27
HETATM   27  C20   D T 404      -0.951   2.651  11.255  1.00 16.20     0.216 C 
BRANCH  27  28
HETATM   28  C27   D T 404      -1.963   1.966  10.450  1.00 15.98     0.014 A 
HETATM   29  C28   D T 404      -2.113   2.209   9.137  1.00 17.50    -0.001 A 
HETATM   30  C31   D T 404      -3.095   1.519   8.378  1.00 22.04    -0.000 A 
HETATM   31  C35   D T 404      -3.933   0.561   8.995  1.00 17.01    -0.000 A 
HETATM   32  C33   D T 404      -3.791   0.311  10.345  1.00 16.34    -0.000 A 
HETATM   33  C29   D T 404      -2.840   0.972  11.072  1.00 14.11    -0.001 A 
ENDBRANCH  27  28
BRANCH  27  34
HETATM   34  O34   D T 404      -0.723   2.007  12.526  1.00 16.74    -0.340 OA
HETATM   35  C36   D T 404      -0.061   2.834  13.551  1.00 18.61     0.175 C 
ENDBRANCH  27  34
ENDBRANCH  12  27
TORSDOF 5
ENDMDL
