MODEL 1
REMARK VINA RESULT:    -9.186      0.000      0.000
REMARK INTER + INTRA:         -23.007
REMARK INTER:                 -18.852
REMARK INTRA:                  -4.154
REMARK UNBOUND:                -4.154
REMARK  18 active torsions:
REMARK  status: ('A' for Active; 'I' for Inactive)
REMARK    1  A    between atoms: C2_2  and  C6_6 
REMARK    2  A    between atoms: C6_6  and  O7_7 
REMARK    3  A    between atoms: O7_7  and  C10_8 
REMARK       I    between atoms: C10_8  and  N11_10 
REMARK    4  A    between atoms: N11_10  and  C12_11 
REMARK    5  A    between atoms: C12_11  and  C13_12 
REMARK    6  A    between atoms: C12_11  and  C26_15 
REMARK    7  A    between atoms: C13_12  and  C14_13 
REMARK    8  A    between atoms: C14_13  and  C15_14 
REMARK    9  A    between atoms: C15_14  and  C44_23 
REMARK   10  A    between atoms: C15_14  and  N58_30 
REMARK   11  A    between atoms: C26_15  and  C28_16 
REMARK   12  A    between atoms: C44_23  and  C45_24 
REMARK       I    between atoms: N58_30  and  C18_33 
REMARK   13  A    between atoms: N20_31  and  C19_32 
REMARK       I    between atoms: N20_31  and  C21_38 
REMARK   14  A    between atoms: C19_32  and  C18_33 
REMARK   15  A    between atoms: C19_32  and  C62_35 
REMARK       I    between atoms: C21_38  and  N74_39 
REMARK   16  A    between atoms: N74_39  and  C75_40 
REMARK   17  A    between atoms: C75_40  and  C77_42 
REMARK   18  A    between atoms: C82_45  and  C85_47 
ROOT
HETATM    1  C15   D T 401      -0.731  -2.135  10.918  1.00 59.81     0.113 C 
ENDROOT
BRANCH   1   2
HETATM    2  C14   D T 401      -0.842  -0.644  11.265  1.00 58.93     0.060 C 
BRANCH   2   3
HETATM    3  C13   D T 401      -1.524   0.269  10.219  1.00 59.07     0.177 C 
HETATM    4  O41   D T 401      -0.627   0.440   9.128  1.00 58.43    -0.221 OA
BRANCH   3   5
HETATM    5  C12   D T 401      -1.917   1.661  10.724  1.00 59.52     0.143 C 
BRANCH   5   6
HETATM    6  N11   D T 401      -0.793   2.548  10.467  1.00 58.37    -0.211 NA
HETATM    7  C10   D T 401      -0.061   2.958  11.488  1.00 59.08     0.384 C 
HETATM    8  O24   D T 401      -0.378   2.677  12.643  1.00 59.19    -0.236 OA
BRANCH   7   9
HETATM    9  O7    D T 401       1.147   3.733  11.243  1.00 58.33    -0.278 OA
BRANCH   9  10
HETATM   10  C6    D T 401       2.378   3.101  11.539  1.00 59.85     0.188 C 
BRANCH  10  11
HETATM   11  C2    D T 401       2.874   2.480  10.274  1.00 62.87     0.058 A 
HETATM   12  C1    D T 401       2.752   1.214   9.711  1.00 63.59     0.104 A 
HETATM   13  N5    D T 401       3.440   1.134   8.515  1.00 65.21    -0.235 NA
HETATM   14  C4    D T 401       4.095   2.260   8.107  1.00 64.03     0.134 A 
HETATM   15  S3    D T 401       3.867   3.501   9.284  1.00 63.44    -0.066 SA
ENDBRANCH  10  11
ENDBRANCH   9  10
ENDBRANCH   7   9
ENDBRANCH   5   6
BRANCH   5  16
HETATM   16  C26   D T 401      -3.220   2.249  10.143  1.00 59.99     0.053 C 
BRANCH  16  17
HETATM   17  C28   D T 401      -4.326   1.203  10.053  1.00 61.27    -0.020 A 
HETATM   18  C31   D T 401      -4.913   0.685  11.221  1.00 62.70    -0.004 A 
HETATM   19  C32   D T 401      -5.937  -0.283  11.160  1.00 62.25    -0.000 A 
HETATM   20  C33   D T 401      -6.402  -0.744   9.928  1.00 60.89    -0.000 A 
HETATM   21  C34   D T 401      -5.827  -0.239   8.759  1.00 61.83    -0.000 A 
HETATM   22  C35   D T 401      -4.791   0.727   8.817  1.00 61.69    -0.004 A 
ENDBRANCH  16  17
ENDBRANCH   5  16
ENDBRANCH   3   5
ENDBRANCH   2   3
ENDBRANCH   1   2
BRANCH   1  23
HETATM   23  C44   D T 401      -1.435  -2.984  11.991  1.00 61.03     0.051 C 
BRANCH  23  24
HETATM   24  C45   D T 401      -2.589  -3.859  11.513  1.00 62.14    -0.020 A 
HETATM   25  C48   D T 401      -3.683  -3.183  10.975  1.00 62.95    -0.004 A 
HETATM   26  C49   D T 401      -4.801  -3.860  10.464  1.00 63.23    -0.000 A 
HETATM   27  C50   D T 401      -4.826  -5.252  10.481  1.00 64.66    -0.000 A 
HETATM   28  C51   D T 401      -3.732  -5.949  11.015  1.00 64.50    -0.000 A 
HETATM   29  C52   D T 401      -2.615  -5.267  11.522  1.00 63.39    -0.004 A 
ENDBRANCH  23  24
ENDBRANCH   1  23
BRANCH   1  30
HETATM   30  N58   D T 401       0.625  -2.612  10.930  1.00 60.63    -0.238 NA
HETATM   31  C18   D T 401       1.152  -3.575  10.193  1.00 62.24     0.274 C 
HETATM   32  O61   D T 401       0.624  -4.234   9.297  1.00 61.50    -0.268 OA
BRANCH  31  33
HETATM   33  C19   D T 401       2.562  -3.814  10.616  1.00 64.75     0.188 C 
BRANCH  33  34
HETATM   34  N20   D T 401       2.702  -5.191  11.043  1.00 65.69    -0.211 NA
HETATM   35  C21   D T 401       2.741  -5.489  12.316  1.00 66.79     0.343 C 
HETATM   36  N74   D T 401       3.506  -6.488  12.722  1.00 71.41    -0.294 N 
HETATM   37  O76   D T 401       2.216  -4.777  13.131  1.00 67.85    -0.245 OA
HETATM   38  C95   D T 401       4.777  -6.869  12.097  1.00 70.78     0.131 C 
BRANCH  36  39
HETATM   39  C75   D T 401       3.157  -7.262  13.902  1.00 74.33     0.152 C 
BRANCH  39  40
HETATM   40  C77   D T 401       2.241  -8.350  13.447  1.00 76.44     0.088 A 
HETATM   41  C80   D T 401       2.561  -9.712  13.467  1.00 78.25     0.053 A 
HETATM   42  S81   D T 401       1.225 -10.633  12.871  1.00 82.00    -0.070 SA
HETATM   43  C82   D T 401       0.272  -9.191  12.619  1.00 80.73     0.088 A 
HETATM   44  N83   D T 401       0.978  -8.082  12.986  1.00 78.96    -0.245 NA
BRANCH  43  45
HETATM   45  C85   D T 401      -1.105  -9.351  12.080  1.00 81.61     0.047 C 
HETATM   46  C86   D T 401      -1.250  -8.693  10.702  1.00 81.16     0.007 C 
HETATM   47  C90   D T 401      -2.112  -8.808  13.108  1.00 82.31     0.007 C 
ENDBRANCH  43  45
ENDBRANCH  39  40
ENDBRANCH  36  39
ENDBRANCH  33  34
BRANCH  33  48
HETATM   48  C62   D T 401       3.548  -3.544   9.462  1.00 64.68     0.032 C 
HETATM   49  C64   D T 401       4.565  -2.475   9.823  1.00 64.29     0.003 C 
HETATM   50  C68   D T 401       4.242  -4.819   8.991  1.00 63.77     0.003 C 
ENDBRANCH  33  48
ENDBRANCH  31  33
ENDBRANCH   1  30
TORSDOF 18
ENDMDL
MODEL 2
REMARK VINA RESULT:    -9.098      2.535      7.745
REMARK INTER + INTRA:         -22.825
REMARK INTER:                 -19.158
REMARK INTRA:                  -3.667
REMARK UNBOUND:                -4.154
REMARK  18 active torsions:
REMARK  status: ('A' for Active; 'I' for Inactive)
REMARK    1  A    between atoms: C2_2  and  C6_6 
REMARK    2  A    between atoms: C6_6  and  O7_7 
REMARK    3  A    between atoms: O7_7  and  C10_8 
REMARK       I    between atoms: C10_8  and  N11_10 
REMARK    4  A    between atoms: N11_10  and  C12_11 
REMARK    5  A    between atoms: C12_11  and  C13_12 
REMARK    6  A    between atoms: C12_11  and  C26_15 
REMARK    7  A    between atoms: C13_12  and  C14_13 
REMARK    8  A    between atoms: C14_13  and  C15_14 
REMARK    9  A    between atoms: C15_14  and  C44_23 
REMARK   10  A    between atoms: C15_14  and  N58_30 
REMARK   11  A    between atoms: C26_15  and  C28_16 
REMARK   12  A    between atoms: C44_23  and  C45_24 
REMARK       I    between atoms: N58_30  and  C18_33 
REMARK   13  A    between atoms: N20_31  and  C19_32 
REMARK       I    between atoms: N20_31  and  C21_38 
REMARK   14  A    between atoms: C19_32  and  C18_33 
REMARK   15  A    between atoms: C19_32  and  C62_35 
REMARK       I    between atoms: C21_38  and  N74_39 
REMARK   16  A    between atoms: N74_39  and  C75_40 
REMARK   17  A    between atoms: C75_40  and  C77_42 
REMARK   18  A    between atoms: C82_45  and  C85_47 
ROOT
HETATM    1  C15   D T 401      -0.396  -0.085  10.591  1.00 59.81     0.113 C 
ENDROOT
BRANCH   1   2
HETATM    2  C14   D T 401      -0.238  -1.601  10.414  1.00 58.93     0.060 C 
BRANCH   2   3
HETATM    3  C13   D T 401      -0.571  -2.488  11.636  1.00 59.07     0.177 C 
HETATM    4  O41   D T 401       0.628  -3.129  12.057  1.00 58.43    -0.221 OA
BRANCH   3   5
HETATM    5  C12   D T 401      -1.620  -3.575  11.388  1.00 59.52     0.143 C 
BRANCH   5   6
HETATM    6  N11   D T 401      -1.104  -4.813  11.950  1.00 58.37    -0.211 NA
HETATM    7  C10   D T 401      -0.952  -5.857  11.155  1.00 59.08     0.384 C 
HETATM    8  O24   D T 401      -1.330  -5.817   9.985  1.00 59.19    -0.236 OA
BRANCH   7   9
HETATM    9  O7    D T 401      -0.310  -7.062  11.661  1.00 58.33    -0.278 OA
BRANCH   9  10
HETATM   10  C6    D T 401      -0.790  -8.296  11.161  1.00 59.85     0.188 C 
BRANCH  10  11
HETATM   11  C2    D T 401      -1.892  -8.743  12.065  1.00 62.87     0.058 A 
HETATM   12  C1    D T 401      -3.190  -8.299  12.294  1.00 63.59     0.104 A 
HETATM   13  N5    D T 401      -3.805  -9.047  13.279  1.00 65.21    -0.235 NA
HETATM   14  C4    D T 401      -3.068 -10.051  13.838  1.00 64.03     0.134 A 
HETATM   15  S3    D T 401      -1.501 -10.065  13.117  1.00 63.44    -0.066 SA
ENDBRANCH  10  11
ENDBRANCH   9  10
ENDBRANCH   7   9
ENDBRANCH   5   6
BRANCH   5  16
HETATM   16  C26   D T 401      -3.038  -3.283  11.925  1.00 59.99     0.053 C 
BRANCH  16  17
HETATM   17  C28   D T 401      -4.083  -3.307  10.815  1.00 61.27    -0.020 A 
HETATM   18  C31   D T 401      -4.713  -4.512  10.455  1.00 62.70    -0.004 A 
HETATM   19  C32   D T 401      -5.681  -4.556   9.431  1.00 62.25    -0.000 A 
HETATM   20  C33   D T 401      -6.048  -3.392   8.753  1.00 60.89    -0.000 A 
HETATM   21  C34   D T 401      -5.429  -2.188   9.100  1.00 61.83    -0.000 A 
HETATM   22  C35   D T 401      -4.448  -2.142  10.122  1.00 61.69    -0.004 A 
ENDBRANCH  16  17
ENDBRANCH   5  16
ENDBRANCH   3   5
ENDBRANCH   2   3
ENDBRANCH   1   2
BRANCH   1  23
HETATM   23  C44   D T 401      -1.087   0.525   9.359  1.00 61.03     0.051 C 
BRANCH  23  24
HETATM   24  C45   D T 401      -2.544   0.940   9.535  1.00 62.14    -0.020 A 
HETATM   25  C48   D T 401      -3.282   1.081   8.361  1.00 62.95    -0.004 A 
HETATM   26  C49   D T 401      -4.643   1.424   8.371  1.00 63.23    -0.000 A 
HETATM   27  C50   D T 401      -5.290   1.623   9.588  1.00 64.66    -0.000 A 
HETATM   28  C51   D T 401      -4.564   1.482  10.780  1.00 64.50    -0.000 A 
HETATM   29  C52   D T 401      -3.203   1.136  10.764  1.00 63.39    -0.004 A 
ENDBRANCH  23  24
ENDBRANCH   1  23
BRANCH   1  30
HETATM   30  N58   D T 401       0.863   0.604  10.662  1.00 60.63    -0.238 NA
HETATM   31  C18   D T 401       1.354   1.294  11.678  1.00 62.24     0.274 C 
HETATM   32  O61   D T 401       0.877   1.452  12.802  1.00 61.50    -0.268 OA
BRANCH  31  33
HETATM   33  C19   D T 401       2.639   1.934  11.274  1.00 64.75     0.188 C 
BRANCH  33  34
HETATM   34  N20   D T 401       3.413   0.992  10.492  1.00 65.69    -0.211 NA
HETATM   35  C21   D T 401       4.687   0.821  10.734  1.00 66.79     0.343 C 
HETATM   36  N74   D T 401       5.508   0.573   9.728  1.00 71.41    -0.294 N 
HETATM   37  O76   D T 401       5.141   1.036  11.827  1.00 67.85    -0.245 OA
HETATM   38  C95   D T 401       5.340   1.098   8.369  1.00 70.78     0.131 C 
BRANCH  36  39
HETATM   39  C75   D T 401       6.714  -0.214   9.926  1.00 74.33     0.152 C 
BRANCH  39  40
HETATM   40  C77   D T 401       6.272  -1.584  10.327  1.00 76.44     0.088 A 
HETATM   41  C80   D T 401       6.873  -2.344  11.337  1.00 78.25     0.053 A 
HETATM   42  S81   D T 401       6.053  -3.857  11.492  1.00 82.00    -0.070 SA
HETATM   43  C82   D T 401       4.928  -3.442  10.221  1.00 80.73     0.088 A 
HETATM   44  N83   D T 401       5.202  -2.198   9.731  1.00 78.96    -0.245 NA
BRANCH  43  45
HETATM   45  C85   D T 401       3.878  -4.434   9.870  1.00 81.61     0.047 C 
HETATM   46  C86   D T 401       4.464  -5.629   9.107  1.00 81.16     0.007 C 
HETATM   47  C90   D T 401       2.757  -3.724   9.092  1.00 82.31     0.007 C 
ENDBRANCH  43  45
ENDBRANCH  39  40
ENDBRANCH  36  39
ENDBRANCH  33  34
BRANCH  33  48
HETATM   48  C62   D T 401       2.392   3.202  10.431  1.00 64.68     0.032 C 
HETATM   49  C64   D T 401       1.181   3.979  10.916  1.00 64.29     0.003 C 
HETATM   50  C68   D T 401       3.626   4.099  10.372  1.00 63.77     0.003 C 
ENDBRANCH  33  48
ENDBRANCH  31  33
ENDBRANCH   1  30
TORSDOF 18
ENDMDL
MODEL 3
REMARK VINA RESULT:    -8.723      2.978      8.435
REMARK INTER + INTRA:         -22.056
REMARK INTER:                 -18.684
REMARK INTRA:                  -3.373
REMARK UNBOUND:                -4.154
REMARK  18 active torsions:
REMARK  status: ('A' for Active; 'I' for Inactive)
REMARK    1  A    between atoms: C2_2  and  C6_6 
REMARK    2  A    between atoms: C6_6  and  O7_7 
REMARK    3  A    between atoms: O7_7  and  C10_8 
REMARK       I    between atoms: C10_8  and  N11_10 
REMARK    4  A    between atoms: N11_10  and  C12_11 
REMARK    5  A    between atoms: C12_11  and  C13_12 
REMARK    6  A    between atoms: C12_11  and  C26_15 
REMARK    7  A    between atoms: C13_12  and  C14_13 
REMARK    8  A    between atoms: C14_13  and  C15_14 
REMARK    9  A    between atoms: C15_14  and  C44_23 
REMARK   10  A    between atoms: C15_14  and  N58_30 
REMARK   11  A    between atoms: C26_15  and  C28_16 
REMARK   12  A    between atoms: C44_23  and  C45_24 
REMARK       I    between atoms: N58_30  and  C18_33 
REMARK   13  A    between atoms: N20_31  and  C19_32 
REMARK       I    between atoms: N20_31  and  C21_38 
REMARK   14  A    between atoms: C19_32  and  C18_33 
REMARK   15  A    between atoms: C19_32  and  C62_35 
REMARK       I    between atoms: C21_38  and  N74_39 
REMARK   16  A    between atoms: N74_39  and  C75_40 
REMARK   17  A    between atoms: C75_40  and  C77_42 
REMARK   18  A    between atoms: C82_45  and  C85_47 
ROOT
HETATM    1  C15   D T 401      -0.493  -0.391  10.574  1.00 59.81     0.113 C 
ENDROOT
BRANCH   1   2
HETATM    2  C14   D T 401      -1.814  -0.916   9.996  1.00 58.93     0.060 C 
BRANCH   2   3
HETATM    3  C13   D T 401      -2.959  -1.186  11.001  1.00 59.07     0.177 C 
HETATM    4  O41   D T 401      -2.656  -2.385  11.704  1.00 58.43    -0.221 OA
BRANCH   3   5
HETATM    5  C12   D T 401      -4.349  -1.348  10.378  1.00 59.52     0.143 C 
BRANCH   5   6
HETATM    6  N11   D T 401      -4.851  -2.655  10.771  1.00 58.37    -0.211 NA
HETATM    7  C10   D T 401      -5.315  -3.465   9.836  1.00 59.08     0.384 C 
HETATM    8  O24   D T 401      -5.413  -3.088   8.669  1.00 59.19    -0.236 OA
BRANCH   7   9
HETATM    9  O7    D T 401      -5.695  -4.826  10.185  1.00 58.33    -0.278 OA
BRANCH   9  10
HETATM   10  C6    D T 401      -5.022  -5.412  11.284  1.00 59.85     0.188 C 
BRANCH  10  11
HETATM   11  C2    D T 401      -3.731  -5.961  10.773  1.00 62.87     0.058 A 
HETATM   12  C1    D T 401      -3.347  -6.572   9.584  1.00 63.59     0.104 A 
HETATM   13  N5    D T 401      -2.015  -6.936   9.619  1.00 65.21    -0.235 NA
HETATM   14  C4    D T 401      -1.330  -6.648  10.764  1.00 64.03     0.134 A 
HETATM   15  S3    D T 401      -2.403  -5.895  11.886  1.00 63.44    -0.066 SA
ENDBRANCH  10  11
ENDBRANCH   9  10
ENDBRANCH   7   9
ENDBRANCH   5   6
BRANCH   5  16
HETATM   16  C26   D T 401      -5.375  -0.245  10.718  1.00 59.99     0.053 C 
BRANCH  16  17
HETATM   17  C28   D T 401      -5.217   0.975   9.817  1.00 61.27    -0.020 A 
HETATM   18  C31   D T 401      -4.572   2.132  10.291  1.00 62.70    -0.004 A 
HETATM   19  C32   D T 401      -4.417   3.271   9.474  1.00 62.25    -0.000 A 
HETATM   20  C33   D T 401      -4.894   3.272   8.163  1.00 60.89    -0.000 A 
HETATM   21  C34   D T 401      -5.538   2.130   7.680  1.00 61.83    -0.000 A 
HETATM   22  C35   D T 401      -5.704   0.987   8.501  1.00 61.69    -0.004 A 
ENDBRANCH  16  17
ENDBRANCH   5  16
ENDBRANCH   3   5
ENDBRANCH   2   3
ENDBRANCH   1   2
BRANCH   1  23
HETATM   23  C44   D T 401      -0.229   1.043  10.081  1.00 61.03     0.051 C 
BRANCH  23  24
HETATM   24  C45   D T 401       0.123   2.073  11.149  1.00 62.14    -0.020 A 
HETATM   25  C48   D T 401      -0.377   1.821  12.426  1.00 62.95    -0.004 A 
HETATM   26  C49   D T 401      -0.104   2.664  13.515  1.00 63.23    -0.000 A 
HETATM   27  C50   D T 401       0.698   3.786  13.327  1.00 64.66    -0.000 A 
HETATM   28  C51   D T 401       1.213   4.054  12.050  1.00 64.50    -0.000 A 
HETATM   29  C52   D T 401       0.939   3.206  10.965  1.00 63.39    -0.004 A 
ENDBRANCH  23  24
ENDBRANCH   1  23
BRANCH   1  30
HETATM   30  N58   D T 401       0.651  -1.132  10.118  1.00 60.63    -0.238 NA
HETATM   31  C18   D T 401       1.695  -1.528  10.825  1.00 62.24     0.274 C 
HETATM   32  O61   D T 401       1.897  -1.406  12.033  1.00 61.50    -0.268 OA
BRANCH  31  33
HETATM   33  C19   D T 401       2.697  -2.167   9.923  1.00 64.75     0.188 C 
BRANCH  33  34
HETATM   34  N20   D T 401       3.973  -1.502  10.084  1.00 65.69    -0.211 NA
HETATM   35  C21   D T 401       4.547  -0.916   9.066  1.00 66.79     0.343 C 
HETATM   36  N74   D T 401       5.866  -0.933   8.970  1.00 71.41    -0.294 N 
HETATM   37  O76   D T 401       3.893  -0.499   8.146  1.00 67.85    -0.245 OA
HETATM   38  C95   D T 401       6.719  -2.028   9.442  1.00 70.78     0.131 C 
BRANCH  36  39
HETATM   39  C75   D T 401       6.579   0.145   8.305  1.00 74.33     0.152 C 
BRANCH  39  40
HETATM   40  C77   D T 401       6.419   1.359   9.161  1.00 76.44     0.088 A 
HETATM   41  C80   D T 401       6.933   1.485  10.456  1.00 78.25     0.053 A 
HETATM   42  S81   D T 401       6.539   3.045  11.089  1.00 82.00    -0.070 SA
HETATM   43  C82   D T 401       5.710   3.494   9.619  1.00 80.73     0.088 A 
HETATM   44  N83   D T 401       5.758   2.473   8.713  1.00 78.96    -0.245 NA
BRANCH  43  45
HETATM   45  C85   D T 401       5.108   4.851   9.546  1.00 81.61     0.047 C 
HETATM   46  C86   D T 401       4.382   5.075   8.213  1.00 81.16     0.007 C 
HETATM   47  C90   D T 401       6.201   5.900   9.811  1.00 82.31     0.007 C 
ENDBRANCH  43  45
ENDBRANCH  39  40
ENDBRANCH  36  39
ENDBRANCH  33  34
BRANCH  33  48
HETATM   48  C62   D T 401       2.867  -3.665  10.246  1.00 64.68     0.032 C 
HETATM   49  C64   D T 401       1.537  -4.339  10.535  1.00 64.29     0.003 C 
HETATM   50  C68   D T 401       3.626  -4.405   9.147  1.00 63.77     0.003 C 
ENDBRANCH  33  48
ENDBRANCH  31  33
ENDBRANCH   1  30
TORSDOF 18
ENDMDL
MODEL 4
REMARK VINA RESULT:    -8.579      2.800      8.925
REMARK INTER + INTRA:         -21.761
REMARK INTER:                 -18.246
REMARK INTRA:                  -3.515
REMARK UNBOUND:                -4.154
REMARK  18 active torsions:
REMARK  status: ('A' for Active; 'I' for Inactive)
REMARK    1  A    between atoms: C2_2  and  C6_6 
REMARK    2  A    between atoms: C6_6  and  O7_7 
REMARK    3  A    between atoms: O7_7  and  C10_8 
REMARK       I    between atoms: C10_8  and  N11_10 
REMARK    4  A    between atoms: N11_10  and  C12_11 
REMARK    5  A    between atoms: C12_11  and  C13_12 
REMARK    6  A    between atoms: C12_11  and  C26_15 
REMARK    7  A    between atoms: C13_12  and  C14_13 
REMARK    8  A    between atoms: C14_13  and  C15_14 
REMARK    9  A    between atoms: C15_14  and  C44_23 
REMARK   10  A    between atoms: C15_14  and  N58_30 
REMARK   11  A    between atoms: C26_15  and  C28_16 
REMARK   12  A    between atoms: C44_23  and  C45_24 
REMARK       I    between atoms: N58_30  and  C18_33 
REMARK   13  A    between atoms: N20_31  and  C19_32 
REMARK       I    between atoms: N20_31  and  C21_38 
REMARK   14  A    between atoms: C19_32  and  C18_33 
REMARK   15  A    between atoms: C19_32  and  C62_35 
REMARK       I    between atoms: C21_38  and  N74_39 
REMARK   16  A    between atoms: N74_39  and  C75_40 
REMARK   17  A    between atoms: C75_40  and  C77_42 
REMARK   18  A    between atoms: C82_45  and  C85_47 
ROOT
HETATM    1  C15   D T 401      -1.162   0.601  11.155  1.00 59.81     0.113 C 
ENDROOT
BRANCH   1   2
HETATM    2  C14   D T 401      -1.079  -0.609  10.215  1.00 58.93     0.060 C 
BRANCH   2   3
HETATM    3  C13   D T 401      -0.016  -1.682  10.548  1.00 59.07     0.177 C 
HETATM    4  O41   D T 401       0.652  -2.033   9.342  1.00 58.43    -0.221 OA
BRANCH   3   5
HETATM    5  C12   D T 401      -0.563  -2.970  11.172  1.00 59.52     0.143 C 
BRANCH   5   6
HETATM    6  N11   D T 401       0.457  -3.482  12.074  1.00 58.37    -0.211 NA
HETATM    7  C10   D T 401       1.118  -4.574  11.731  1.00 59.08     0.384 C 
HETATM    8  O24   D T 401       0.813  -5.202  10.718  1.00 59.19    -0.236 OA
BRANCH   7   9
HETATM    9  O7    D T 401       2.235  -5.027  12.548  1.00 58.33    -0.278 OA
BRANCH   9  10
HETATM   10  C6    D T 401       3.178  -4.046  12.935  1.00 59.85     0.188 C 
BRANCH  10  11
HETATM   11  C2    D T 401       3.818  -3.528  11.689  1.00 62.87     0.058 A 
HETATM   12  C1    D T 401       4.536  -4.122  10.656  1.00 63.59     0.104 A 
HETATM   13  N5    D T 401       4.949  -3.181   9.733  1.00 65.21    -0.235 NA
HETATM   14  C4    D T 401       4.600  -1.884   9.979  1.00 64.03     0.134 A 
HETATM   15  S3    D T 401       3.718  -1.812  11.461  1.00 63.44    -0.066 SA
ENDBRANCH  10  11
ENDBRANCH   9  10
ENDBRANCH   7   9
ENDBRANCH   5   6
BRANCH   5  16
HETATM   16  C26   D T 401      -1.919  -2.847  11.898  1.00 59.99     0.053 C 
BRANCH  16  17
HETATM   17  C28   D T 401      -3.037  -3.556  11.139  1.00 61.27    -0.020 A 
HETATM   18  C31   D T 401      -3.067  -4.960  11.063  1.00 62.70    -0.004 A 
HETATM   19  C32   D T 401      -4.091  -5.634  10.366  1.00 62.25    -0.000 A 
HETATM   20  C33   D T 401      -5.112  -4.917   9.741  1.00 60.89    -0.000 A 
HETATM   21  C34   D T 401      -5.094  -3.521   9.808  1.00 61.83    -0.000 A 
HETATM   22  C35   D T 401      -4.061  -2.841  10.499  1.00 61.69    -0.004 A 
ENDBRANCH  16  17
ENDBRANCH   5  16
ENDBRANCH   3   5
ENDBRANCH   2   3
ENDBRANCH   1   2
BRANCH   1  23
HETATM   23  C44   D T 401      -2.138   1.648  10.588  1.00 61.03     0.051 C 
BRANCH  23  24
HETATM   24  C45   D T 401      -3.456   1.118  10.034  1.00 62.14    -0.020 A 
HETATM   25  C48   D T 401      -4.409   0.749  10.982  1.00 62.95    -0.004 A 
HETATM   26  C49   D T 401      -5.680   0.276  10.619  1.00 63.23    -0.000 A 
HETATM   27  C50   D T 401      -6.014   0.178   9.271  1.00 64.66    -0.000 A 
HETATM   28  C51   D T 401      -5.069   0.548   8.303  1.00 64.50    -0.000 A 
HETATM   29  C52   D T 401      -3.800   1.023   8.672  1.00 63.39    -0.004 A 
ENDBRANCH  23  24
ENDBRANCH   1  23
BRANCH   1  30
HETATM   30  N58   D T 401       0.083   1.310  11.267  1.00 60.63    -0.238 NA
HETATM   31  C18   D T 401       0.978   1.227  12.236  1.00 62.24     0.274 C 
HETATM   32  O61   D T 401       0.978   0.490  13.223  1.00 61.50    -0.268 OA
BRANCH  31  33
HETATM   33  C19   D T 401       2.063   2.223  12.002  1.00 64.75     0.188 C 
BRANCH  33  34
HETATM   34  N20   D T 401       2.589   2.046  10.664  1.00 65.69    -0.211 NA
HETATM   35  C21   D T 401       3.881   2.016  10.460  1.00 66.79     0.343 C 
HETATM   36  N74   D T 401       4.370   2.532   9.345  1.00 71.41    -0.294 N 
HETATM   37  O76   D T 401       4.634   1.666  11.330  1.00 67.85    -0.245 OA
HETATM   38  C95   D T 401       3.796   3.683   8.640  1.00 70.78     0.131 C 
BRANCH  36  39
HETATM   39  C75   D T 401       5.596   2.016   8.759  1.00 74.33     0.152 C 
BRANCH  39  40
HETATM   40  C77   D T 401       6.599   3.121   8.820  1.00 76.44     0.088 A 
HETATM   41  C80   D T 401       7.404   3.397   9.932  1.00 78.25     0.053 A 
HETATM   42  S81   D T 401       8.433   4.743   9.585  1.00 82.00    -0.070 SA
HETATM   43  C82   D T 401       7.777   4.901   7.973  1.00 80.73     0.088 A 
HETATM   44  N83   D T 401       6.822   3.950   7.752  1.00 78.96    -0.245 NA
BRANCH  43  45
HETATM   45  C85   D T 401       8.321   5.977   7.104  1.00 81.61     0.047 C 
HETATM   46  C86   D T 401       9.855   5.980   7.104  1.00 81.16     0.007 C 
HETATM   47  C90   D T 401       7.723   7.325   7.541  1.00 82.31     0.007 C 
ENDBRANCH  43  45
ENDBRANCH  39  40
ENDBRANCH  36  39
ENDBRANCH  33  34
BRANCH  33  48
HETATM   48  C62   D T 401       1.540   3.666  12.148  1.00 64.68     0.032 C 
HETATM   49  C64   D T 401       0.829   4.142  10.893  1.00 64.29     0.003 C 
HETATM   50  C68   D T 401       0.647   3.831  13.375  1.00 63.77     0.003 C 
ENDBRANCH  33  48
ENDBRANCH  31  33
ENDBRANCH   1  30
TORSDOF 18
ENDMDL
MODEL 5
REMARK VINA RESULT:    -8.560      2.470      7.436
REMARK INTER + INTRA:         -21.722
REMARK INTER:                 -18.233
REMARK INTRA:                  -3.490
REMARK UNBOUND:                -4.154
REMARK  18 active torsions:
REMARK  status: ('A' for Active; 'I' for Inactive)
REMARK    1  A    between atoms: C2_2  and  C6_6 
REMARK    2  A    between atoms: C6_6  and  O7_7 
REMARK    3  A    between atoms: O7_7  and  C10_8 
REMARK       I    between atoms: C10_8  and  N11_10 
REMARK    4  A    between atoms: N11_10  and  C12_11 
REMARK    5  A    between atoms: C12_11  and  C13_12 
REMARK    6  A    between atoms: C12_11  and  C26_15 
REMARK    7  A    between atoms: C13_12  and  C14_13 
REMARK    8  A    between atoms: C14_13  and  C15_14 
REMARK    9  A    between atoms: C15_14  and  C44_23 
REMARK   10  A    between atoms: C15_14  and  N58_30 
REMARK   11  A    between atoms: C26_15  and  C28_16 
REMARK   12  A    between atoms: C44_23  and  C45_24 
REMARK       I    between atoms: N58_30  and  C18_33 
REMARK   13  A    between atoms: N20_31  and  C19_32 
REMARK       I    between atoms: N20_31  and  C21_38 
REMARK   14  A    between atoms: C19_32  and  C18_33 
REMARK   15  A    between atoms: C19_32  and  C62_35 
REMARK       I    between atoms: C21_38  and  N74_39 
REMARK   16  A    between atoms: N74_39  and  C75_40 
REMARK   17  A    between atoms: C75_40  and  C77_42 
REMARK   18  A    between atoms: C82_45  and  C85_47 
ROOT
HETATM    1  C15   D T 401      -0.579   0.307  10.382  1.00 59.81     0.113 C 
ENDROOT
BRANCH   1   2
HETATM    2  C14   D T 401      -0.529  -1.186  10.029  1.00 58.93     0.060 C 
BRANCH   2   3
HETATM    3  C13   D T 401      -0.530  -2.185  11.210  1.00 59.07     0.177 C 
HETATM    4  O41   D T 401       0.751  -2.803  11.266  1.00 58.43    -0.221 OA
BRANCH   3   5
HETATM    5  C12   D T 401      -1.582  -3.294  11.125  1.00 59.52     0.143 C 
BRANCH   5   6
HETATM    6  N11   D T 401      -1.039  -4.459  11.806  1.00 58.37    -0.211 NA
HETATM    7  C10   D T 401      -0.949  -5.598  11.143  1.00 59.08     0.384 C 
HETATM    8  O24   D T 401      -1.404  -5.701  10.004  1.00 59.19    -0.236 OA
BRANCH   7   9
HETATM    9  O7    D T 401      -0.285  -6.740  11.756  1.00 58.33    -0.278 OA
BRANCH   9  10
HETATM   10  C6    D T 401      -0.931  -7.993  11.632  1.00 59.85     0.188 C 
BRANCH  10  11
HETATM   11  C2    D T 401       0.093  -9.048  11.899  1.00 62.87     0.058 A 
HETATM   12  C1    D T 401       0.260 -10.359  11.465  1.00 63.59     0.104 A 
HETATM   13  N5    D T 401       1.375 -10.935  12.042  1.00 65.21    -0.235 NA
HETATM   14  C4    D T 401       2.092 -10.156  12.905  1.00 64.03     0.134 A 
HETATM   15  S3    D T 401       1.332  -8.612  13.031  1.00 63.44    -0.066 SA
ENDBRANCH  10  11
ENDBRANCH   9  10
ENDBRANCH   7   9
ENDBRANCH   5   6
BRANCH   5  16
HETATM   16  C26   D T 401      -2.981  -2.944  11.676  1.00 59.99     0.053 C 
BRANCH  16  17
HETATM   17  C28   D T 401      -4.076  -3.184  10.643  1.00 61.27    -0.020 A 
HETATM   18  C31   D T 401      -4.586  -2.116   9.882  1.00 62.70    -0.004 A 
HETATM   19  C32   D T 401      -5.598  -2.318   8.922  1.00 62.25    -0.000 A 
HETATM   20  C33   D T 401      -6.114  -3.594   8.694  1.00 60.89    -0.000 A 
HETATM   21  C34   D T 401      -5.617  -4.665   9.443  1.00 61.83    -0.000 A 
HETATM   22  C35   D T 401      -4.606  -4.464  10.416  1.00 61.69    -0.004 A 
ENDBRANCH  16  17
ENDBRANCH   5  16
ENDBRANCH   3   5
ENDBRANCH   2   3
ENDBRANCH   1   2
BRANCH   1  23
HETATM   23  C44   D T 401      -1.231   1.103   9.238  1.00 61.03     0.051 C 
BRANCH  23  24
HETATM   24  C45   D T 401      -2.749   1.236   9.283  1.00 62.14    -0.020 A 
HETATM   25  C48   D T 401      -3.405   1.148   8.057  1.00 62.95    -0.004 A 
HETATM   26  C49   D T 401      -4.803   1.218   7.950  1.00 63.23    -0.000 A 
HETATM   27  C50   D T 401      -5.570   1.371   9.101  1.00 64.66    -0.000 A 
HETATM   28  C51   D T 401      -4.928   1.458  10.345  1.00 64.50    -0.000 A 
HETATM   29  C52   D T 401      -3.529   1.385  10.446  1.00 63.39    -0.004 A 
ENDBRANCH  23  24
ENDBRANCH   1  23
BRANCH   1  30
HETATM   30  N58   D T 401       0.726   0.894  10.516  1.00 60.63    -0.238 NA
HETATM   31  C18   D T 401       1.790   0.687   9.758  1.00 62.24     0.274 C 
HETATM   32  O61   D T 401       1.888  -0.001   8.742  1.00 61.50    -0.268 OA
BRANCH  31  33
HETATM   33  C19   D T 401       2.959   1.415  10.329  1.00 64.75     0.188 C 
BRANCH  33  34
HETATM   34  N20   D T 401       4.154   0.619  10.137  1.00 65.69    -0.211 NA
HETATM   35  C21   D T 401       4.831   0.182  11.167  1.00 66.79     0.343 C 
HETATM   36  N74   D T 401       6.148   0.097  11.085  1.00 71.41    -0.294 N 
HETATM   37  O76   D T 401       4.292   0.004  12.227  1.00 67.85    -0.245 OA
HETATM   38  C95   D T 401       6.992   1.004  10.300  1.00 70.78     0.131 C 
BRANCH  36  39
HETATM   39  C75   D T 401       6.881  -0.899  11.850  1.00 74.33     0.152 C 
BRANCH  39  40
HETATM   40  C77   D T 401       6.985  -2.113  10.986  1.00 76.44     0.088 A 
HETATM   41  C80   D T 401       8.164  -2.543  10.367  1.00 78.25     0.053 A 
HETATM   42  S81   D T 401       7.857  -3.990   9.473  1.00 82.00    -0.070 SA
HETATM   43  C82   D T 401       6.176  -3.994   9.948  1.00 80.73     0.088 A 
HETATM   44  N83   D T 401       5.906  -2.924  10.752  1.00 78.96    -0.245 NA
BRANCH  43  45
HETATM   45  C85   D T 401       5.316  -5.101   9.453  1.00 81.61     0.047 C 
HETATM   46  C86   D T 401       3.834  -4.704   9.449  1.00 81.16     0.007 C 
HETATM   47  C90   D T 401       5.590  -6.362  10.290  1.00 82.31     0.007 C 
ENDBRANCH  43  45
ENDBRANCH  39  40
ENDBRANCH  36  39
ENDBRANCH  33  34
BRANCH  33  48
HETATM   48  C62   D T 401       3.155   2.784   9.648  1.00 64.68     0.032 C 
HETATM   49  C64   D T 401       3.581   3.855  10.637  1.00 64.29     0.003 C 
HETATM   50  C68   D T 401       4.129   2.707   8.475  1.00 63.77     0.003 C 
ENDBRANCH  33  48
ENDBRANCH  31  33
ENDBRANCH   1  30
TORSDOF 18
ENDMDL
MODEL 6
REMARK VINA RESULT:    -8.522      2.365      8.920
REMARK INTER + INTRA:         -21.644
REMARK INTER:                 -17.611
REMARK INTRA:                  -4.033
REMARK UNBOUND:                -4.154
REMARK  18 active torsions:
REMARK  status: ('A' for Active; 'I' for Inactive)
REMARK    1  A    between atoms: C2_2  and  C6_6 
REMARK    2  A    between atoms: C6_6  and  O7_7 
REMARK    3  A    between atoms: O7_7  and  C10_8 
REMARK       I    between atoms: C10_8  and  N11_10 
REMARK    4  A    between atoms: N11_10  and  C12_11 
REMARK    5  A    between atoms: C12_11  and  C13_12 
REMARK    6  A    between atoms: C12_11  and  C26_15 
REMARK    7  A    between atoms: C13_12  and  C14_13 
REMARK    8  A    between atoms: C14_13  and  C15_14 
REMARK    9  A    between atoms: C15_14  and  C44_23 
REMARK   10  A    between atoms: C15_14  and  N58_30 
REMARK   11  A    between atoms: C26_15  and  C28_16 
REMARK   12  A    between atoms: C44_23  and  C45_24 
REMARK       I    between atoms: N58_30  and  C18_33 
REMARK   13  A    between atoms: N20_31  and  C19_32 
REMARK       I    between atoms: N20_31  and  C21_38 
REMARK   14  A    between atoms: C19_32  and  C18_33 
REMARK   15  A    between atoms: C19_32  and  C62_35 
REMARK       I    between atoms: C21_38  and  N74_39 
REMARK   16  A    between atoms: N74_39  and  C75_40 
REMARK   17  A    between atoms: C75_40  and  C77_42 
REMARK   18  A    between atoms: C82_45  and  C85_47 
ROOT
HETATM    1  C15   D T 401       1.055  -4.471  10.616  1.00 59.81     0.113 C 
ENDROOT
BRANCH   1   2
HETATM    2  C14   D T 401      -0.450  -4.478  10.316  1.00 58.93     0.060 C 
BRANCH   2   3
HETATM    3  C13   D T 401      -1.181  -5.835  10.434  1.00 59.07     0.177 C 
HETATM    4  O41   D T 401      -1.547  -6.256   9.125  1.00 58.43    -0.221 OA
BRANCH   3   5
HETATM    5  C12   D T 401      -2.450  -5.821  11.292  1.00 59.52     0.143 C 
BRANCH   5   6
HETATM    6  N11   D T 401      -2.186  -6.634  12.469  1.00 58.37    -0.211 NA
HETATM    7  C10   D T 401      -2.581  -7.896  12.470  1.00 59.08     0.384 C 
HETATM    8  O24   D T 401      -3.242  -8.350  11.538  1.00 59.19    -0.236 OA
BRANCH   7   9
HETATM    9  O7    D T 401      -2.209  -8.766  13.577  1.00 58.33    -0.278 OA
BRANCH   9  10
HETATM   10  C6    D T 401      -2.163 -10.155  13.306  1.00 59.85     0.188 C 
BRANCH  10  11
HETATM   11  C2    D T 401      -0.745 -10.499  12.988  1.00 62.87     0.058 A 
HETATM   12  C1    D T 401       0.470 -10.264  13.624  1.00 63.59     0.104 A 
HETATM   13  N5    D T 401       1.523 -10.769  12.887  1.00 65.21    -0.235 NA
HETATM   14  C4    D T 401       1.209 -11.385  11.710  1.00 64.03     0.134 A 
HETATM   15  S3    D T 401      -0.501 -11.323  11.482  1.00 63.44    -0.066 SA
ENDBRANCH  10  11
ENDBRANCH   9  10
ENDBRANCH   7   9
ENDBRANCH   5   6
BRANCH   5  16
HETATM   16  C26   D T 401      -2.976  -4.428  11.700  1.00 59.99     0.053 C 
BRANCH  16  17
HETATM   17  C28   D T 401      -4.036  -3.915  10.731  1.00 61.27    -0.020 A 
HETATM   18  C31   D T 401      -4.984  -4.795  10.180  1.00 62.70    -0.004 A 
HETATM   19  C32   D T 401      -5.972  -4.341   9.283  1.00 62.25    -0.000 A 
HETATM   20  C33   D T 401      -6.038  -2.993   8.927  1.00 60.89    -0.000 A 
HETATM   21  C34   D T 401      -5.102  -2.107   9.466  1.00 61.83    -0.000 A 
HETATM   22  C35   D T 401      -4.102  -2.563  10.361  1.00 61.69    -0.004 A 
ENDBRANCH  16  17
ENDBRANCH   5  16
ENDBRANCH   3   5
ENDBRANCH   2   3
ENDBRANCH   1   2
BRANCH   1  23
HETATM   23  C44   D T 401       1.319  -5.025  12.027  1.00 61.03     0.051 C 
BRANCH  23  24
HETATM   24  C45   D T 401       2.773  -5.317  12.380  1.00 62.14    -0.020 A 
HETATM   25  C48   D T 401       3.551  -5.856  11.357  1.00 62.95    -0.004 A 
HETATM   26  C49   D T 401       4.915  -6.143  11.528  1.00 63.23    -0.000 A 
HETATM   27  C50   D T 401       5.523  -5.874  12.751  1.00 64.66    -0.000 A 
HETATM   28  C51   D T 401       4.757  -5.327  13.791  1.00 64.50    -0.000 A 
HETATM   29  C52   D T 401       3.394  -5.041  13.614  1.00 63.39    -0.004 A 
ENDBRANCH  23  24
ENDBRANCH   1  23
BRANCH   1  30
HETATM   30  N58   D T 401       1.612  -3.147  10.652  1.00 60.63    -0.238 NA
HETATM   31  C18   D T 401       2.632  -2.677   9.953  1.00 62.24     0.274 C 
HETATM   32  O61   D T 401       3.291  -3.241   9.080  1.00 61.50    -0.268 OA
BRANCH  31  33
HETATM   33  C19   D T 401       2.939  -1.285  10.392  1.00 64.75     0.188 C 
BRANCH  33  34
HETATM   34  N20   D T 401       1.700  -0.589  10.668  1.00 65.69    -0.211 NA
HETATM   35  C21   D T 401       1.592   0.692  10.428  1.00 66.79     0.343 C 
HETATM   36  N74   D T 401       0.855   1.440  11.231  1.00 71.41    -0.294 N 
HETATM   37  O76   D T 401       2.269   1.219   9.586  1.00 67.85    -0.245 OA
HETATM   38  C95   D T 401       0.690   1.202  12.669  1.00 70.78     0.131 C 
BRANCH  36  39
HETATM   39  C75   D T 401       0.187   2.633  10.736  1.00 74.33     0.152 C 
BRANCH  39  40
HETATM   40  C77   D T 401      -1.090   2.180  10.108  1.00 76.44     0.088 A 
HETATM   41  C80   D T 401      -1.184   1.602   8.836  1.00 78.25     0.053 A 
HETATM   42  S81   D T 401      -2.833   1.210   8.496  1.00 82.00    -0.070 SA
HETATM   43  C82   D T 401      -3.356   1.814  10.049  1.00 80.73     0.088 A 
HETATM   44  N83   D T 401      -2.290   2.282  10.763  1.00 78.96    -0.245 NA
BRANCH  43  45
HETATM   45  C85   D T 401      -4.804   1.734  10.375  1.00 81.61     0.047 C 
HETATM   46  C86   D T 401      -5.057   0.845  11.599  1.00 81.16     0.007 C 
HETATM   47  C90   D T 401      -5.574   1.262   9.129  1.00 82.31     0.007 C 
ENDBRANCH  43  45
ENDBRANCH  39  40
ENDBRANCH  36  39
ENDBRANCH  33  34
BRANCH  33  48
HETATM   48  C62   D T 401       3.813  -1.278  11.663  1.00 64.68     0.032 C 
HETATM   49  C64   D T 401       2.999  -1.565  12.912  1.00 64.29     0.003 C 
HETATM   50  C68   D T 401       4.995  -2.237  11.551  1.00 63.77     0.003 C 
ENDBRANCH  33  48
ENDBRANCH  31  33
ENDBRANCH   1  30
TORSDOF 18
ENDMDL
MODEL 7
REMARK VINA RESULT:    -8.468      2.847      9.875
REMARK INTER + INTRA:         -21.533
REMARK INTER:                 -18.253
REMARK INTRA:                  -3.280
REMARK UNBOUND:                -4.154
REMARK  18 active torsions:
REMARK  status: ('A' for Active; 'I' for Inactive)
REMARK    1  A    between atoms: C2_2  and  C6_6 
REMARK    2  A    between atoms: C6_6  and  O7_7 
REMARK    3  A    between atoms: O7_7  and  C10_8 
REMARK       I    between atoms: C10_8  and  N11_10 
REMARK    4  A    between atoms: N11_10  and  C12_11 
REMARK    5  A    between atoms: C12_11  and  C13_12 
REMARK    6  A    between atoms: C12_11  and  C26_15 
REMARK    7  A    between atoms: C13_12  and  C14_13 
REMARK    8  A    between atoms: C14_13  and  C15_14 
REMARK    9  A    between atoms: C15_14  and  C44_23 
REMARK   10  A    between atoms: C15_14  and  N58_30 
REMARK   11  A    between atoms: C26_15  and  C28_16 
REMARK   12  A    between atoms: C44_23  and  C45_24 
REMARK       I    between atoms: N58_30  and  C18_33 
REMARK   13  A    between atoms: N20_31  and  C19_32 
REMARK       I    between atoms: N20_31  and  C21_38 
REMARK   14  A    between atoms: C19_32  and  C18_33 
REMARK   15  A    between atoms: C19_32  and  C62_35 
REMARK       I    between atoms: C21_38  and  N74_39 
REMARK   16  A    between atoms: N74_39  and  C75_40 
REMARK   17  A    between atoms: C75_40  and  C77_42 
REMARK   18  A    between atoms: C82_45  and  C85_47 
ROOT
HETATM    1  C15   D T 401      -0.611  -0.142  11.243  1.00 59.81     0.113 C 
ENDROOT
BRANCH   1   2
HETATM    2  C14   D T 401      -1.266  -1.345  10.551  1.00 58.93     0.060 C 
BRANCH   2   3
HETATM    3  C13   D T 401      -0.768  -2.749  10.968  1.00 59.07     0.177 C 
HETATM    4  O41   D T 401       0.204  -3.172  10.020  1.00 58.43    -0.221 OA
BRANCH   3   5
HETATM    5  C12   D T 401      -1.850  -3.830  11.044  1.00 59.52     0.143 C 
BRANCH   5   6
HETATM    6  N11   D T 401      -1.296  -4.947  11.792  1.00 58.37    -0.211 NA
HETATM    7  C10   D T 401      -1.138  -6.106  11.178  1.00 59.08     0.384 C 
HETATM    8  O24   D T 401      -1.540  -6.269  10.027  1.00 59.19    -0.236 OA
BRANCH   7   9
HETATM    9  O7    D T 401      -0.460  -7.198  11.863  1.00 58.33    -0.278 OA
BRANCH   9  10
HETATM   10  C6    D T 401      -0.665  -8.499  11.344  1.00 59.85     0.188 C 
BRANCH  10  11
HETATM   11  C2    D T 401      -1.646  -9.184  12.238  1.00 62.87     0.058 A 
HETATM   12  C1    D T 401      -2.885  -8.828  12.762  1.00 63.59     0.104 A 
HETATM   13  N5    D T 401      -3.383  -9.822  13.581  1.00 65.21    -0.235 NA
HETATM   14  C4    D T 401      -2.609 -10.937  13.733  1.00 64.03     0.134 A 
HETATM   15  S3    D T 401      -1.158 -10.743  12.821  1.00 63.44    -0.066 SA
ENDBRANCH  10  11
ENDBRANCH   9  10
ENDBRANCH   7   9
ENDBRANCH   5   6
BRANCH   5  16
HETATM   16  C26   D T 401      -3.204  -3.391  11.642  1.00 59.99     0.053 C 
BRANCH  16  17
HETATM   17  C28   D T 401      -4.310  -3.368  10.592  1.00 61.27    -0.020 A 
HETATM   18  C31   D T 401      -4.969  -4.555  10.224  1.00 62.70    -0.004 A 
HETATM   19  C32   D T 401      -5.993  -4.555   9.255  1.00 62.25    -0.000 A 
HETATM   20  C33   D T 401      -6.387  -3.365   8.642  1.00 60.89    -0.000 A 
HETATM   21  C34   D T 401      -5.740  -2.178   8.997  1.00 61.83    -0.000 A 
HETATM   22  C35   D T 401      -4.703  -2.177   9.963  1.00 61.69    -0.004 A 
ENDBRANCH  16  17
ENDBRANCH   5  16
ENDBRANCH   3   5
ENDBRANCH   2   3
ENDBRANCH   1   2
BRANCH   1  23
HETATM   23  C44   D T 401      -1.055   1.167  10.567  1.00 61.03     0.051 C 
BRANCH  23  24
HETATM   24  C45   D T 401      -2.490   1.212  10.052  1.00 62.14    -0.020 A 
HETATM   25  C48   D T 401      -3.479   1.374  11.022  1.00 62.95    -0.004 A 
HETATM   26  C49   D T 401      -4.840   1.467  10.692  1.00 63.23    -0.000 A 
HETATM   27  C50   D T 401      -5.226   1.406   9.356  1.00 64.66    -0.000 A 
HETATM   28  C51   D T 401      -4.245   1.247   8.366  1.00 64.50    -0.000 A 
HETATM   29  C52   D T 401      -2.885   1.157   8.701  1.00 63.39    -0.004 A 
ENDBRANCH  23  24
ENDBRANCH   1  23
BRANCH   1  30
HETATM   30  N58   D T 401       0.820  -0.133  11.113  1.00 60.63    -0.238 NA
HETATM   31  C18   D T 401       1.723  -0.152  12.079  1.00 62.24     0.274 C 
HETATM   32  O61   D T 401       1.546  -0.241  13.294  1.00 61.50    -0.268 OA
BRANCH  31  33
HETATM   33  C19   D T 401       3.087  -0.017  11.493  1.00 64.75     0.188 C 
BRANCH  33  34
HETATM   34  N20   D T 401       3.693   1.206  11.977  1.00 65.69    -0.211 NA
HETATM   35  C21   D T 401       3.695   2.283  11.236  1.00 66.79     0.343 C 
HETATM   36  N74   D T 401       4.731   3.102  11.290  1.00 71.41    -0.294 N 
HETATM   37  O76   D T 401       2.846   2.458  10.401  1.00 67.85    -0.245 OA
HETATM   38  C95   D T 401       6.114   2.679  11.530  1.00 70.78     0.131 C 
BRANCH  36  39
HETATM   39  C75   D T 401       4.571   4.525  11.039  1.00 74.33     0.152 C 
BRANCH  39  40
HETATM   40  C77   D T 401       5.377   4.839   9.821  1.00 76.44     0.088 A 
HETATM   41  C80   D T 401       5.041   4.431   8.525  1.00 78.25     0.053 A 
HETATM   42  S81   D T 401       6.225   5.013   7.407  1.00 82.00    -0.070 SA
HETATM   43  C82   D T 401       7.131   5.789   8.683  1.00 80.73     0.088 A 
HETATM   44  N83   D T 401       6.521   5.590   9.889  1.00 78.96    -0.245 NA
BRANCH  43  45
HETATM   45  C85   D T 401       8.364   6.529   8.310  1.00 81.61     0.047 C 
HETATM   46  C86   D T 401       8.075   8.014   8.056  1.00 81.16     0.007 C 
HETATM   47  C90   D T 401       9.020   5.837   7.103  1.00 82.31     0.007 C 
ENDBRANCH  43  45
ENDBRANCH  39  40
ENDBRANCH  36  39
ENDBRANCH  33  34
BRANCH  33  48
HETATM   48  C62   D T 401       3.984  -1.209  11.879  1.00 64.68     0.032 C 
HETATM   49  C64   D T 401       3.405  -2.532  11.408  1.00 64.29     0.003 C 
HETATM   50  C68   D T 401       5.417  -1.034  11.381  1.00 63.77     0.003 C 
ENDBRANCH  33  48
ENDBRANCH  31  33
ENDBRANCH   1  30
TORSDOF 18
ENDMDL
MODEL 8
REMARK VINA RESULT:    -8.430      2.251      9.486
REMARK INTER + INTRA:         -21.455
REMARK INTER:                 -18.087
REMARK INTRA:                  -3.368
REMARK UNBOUND:                -4.154
REMARK  18 active torsions:
REMARK  status: ('A' for Active; 'I' for Inactive)
REMARK    1  A    between atoms: C2_2  and  C6_6 
REMARK    2  A    between atoms: C6_6  and  O7_7 
REMARK    3  A    between atoms: O7_7  and  C10_8 
REMARK       I    between atoms: C10_8  and  N11_10 
REMARK    4  A    between atoms: N11_10  and  C12_11 
REMARK    5  A    between atoms: C12_11  and  C13_12 
REMARK    6  A    between atoms: C12_11  and  C26_15 
REMARK    7  A    between atoms: C13_12  and  C14_13 
REMARK    8  A    between atoms: C14_13  and  C15_14 
REMARK    9  A    between atoms: C15_14  and  C44_23 
REMARK   10  A    between atoms: C15_14  and  N58_30 
REMARK   11  A    between atoms: C26_15  and  C28_16 
REMARK   12  A    between atoms: C44_23  and  C45_24 
REMARK       I    between atoms: N58_30  and  C18_33 
REMARK   13  A    between atoms: N20_31  and  C19_32 
REMARK       I    between atoms: N20_31  and  C21_38 
REMARK   14  A    between atoms: C19_32  and  C18_33 
REMARK   15  A    between atoms: C19_32  and  C62_35 
REMARK       I    between atoms: C21_38  and  N74_39 
REMARK   16  A    between atoms: N74_39  and  C75_40 
REMARK   17  A    between atoms: C75_40  and  C77_42 
REMARK   18  A    between atoms: C82_45  and  C85_47 
ROOT
HETATM    1  C15   D T 401       0.504  -3.364  10.348  1.00 59.81     0.113 C 
ENDROOT
BRANCH   1   2
HETATM    2  C14   D T 401      -0.580  -4.391  10.702  1.00 58.93     0.060 C 
BRANCH   2   3
HETATM    3  C13   D T 401      -1.882  -3.845  11.333  1.00 59.07     0.177 C 
HETATM    4  O41   D T 401      -1.742  -3.896  12.749  1.00 58.43    -0.221 OA
BRANCH   3   5
HETATM    5  C12   D T 401      -3.157  -4.608  10.962  1.00 59.52     0.143 C 
BRANCH   5   6
HETATM    6  N11   D T 401      -3.021  -5.960  11.481  1.00 58.37    -0.211 NA
HETATM    7  C10   D T 401      -3.052  -6.972  10.632  1.00 59.08     0.384 C 
HETATM    8  O24   D T 401      -3.289  -6.786   9.439  1.00 59.19    -0.236 OA
BRANCH   7   9
HETATM    9  O7    D T 401      -2.781  -8.321  11.109  1.00 58.33    -0.278 OA
BRANCH   9  10
HETATM   10  C6    D T 401      -1.551  -8.524  11.778  1.00 59.85     0.188 C 
BRANCH  10  11
HETATM   11  C2    D T 401      -1.848  -9.275  13.035  1.00 62.87     0.058 A 
HETATM   12  C1    D T 401      -2.901 -10.085  13.447  1.00 63.59     0.104 A 
HETATM   13  N5    D T 401      -2.713 -10.524  14.743  1.00 65.21    -0.235 NA
HETATM   14  C4    D T 401      -1.576 -10.107  15.373  1.00 64.03     0.134 A 
HETATM   15  S3    D T 401      -0.683  -9.087  14.306  1.00 63.44    -0.066 SA
ENDBRANCH  10  11
ENDBRANCH   9  10
ENDBRANCH   7   9
ENDBRANCH   5   6
BRANCH   5  16
HETATM   16  C26   D T 401      -4.485  -3.976  11.431  1.00 59.99     0.053 C 
BRANCH  16  17
HETATM   17  C28   D T 401      -4.905  -2.810  10.542  1.00 61.27    -0.020 A 
HETATM   18  C31   D T 401      -5.362  -3.041   9.232  1.00 62.70    -0.004 A 
HETATM   19  C32   D T 401      -5.755  -1.977   8.394  1.00 62.25    -0.000 A 
HETATM   20  C33   D T 401      -5.709  -0.660   8.854  1.00 60.89    -0.000 A 
HETATM   21  C34   D T 401      -5.257  -0.416  10.154  1.00 61.83    -0.000 A 
HETATM   22  C35   D T 401      -4.852  -1.482  10.995  1.00 61.69    -0.004 A 
ENDBRANCH  16  17
ENDBRANCH   5  16
ENDBRANCH   3   5
ENDBRANCH   2   3
ENDBRANCH   1   2
BRANCH   1  23
HETATM   23  C44   D T 401       1.730  -3.549  11.259  1.00 61.03     0.051 C 
BRANCH  23  24
HETATM   24  C45   D T 401       2.906  -4.317  10.665  1.00 62.14    -0.020 A 
HETATM   25  C48   D T 401       3.710  -5.000  11.576  1.00 62.95    -0.004 A 
HETATM   26  C49   D T 401       4.806  -5.776  11.171  1.00 63.23    -0.000 A 
HETATM   27  C50   D T 401       5.105  -5.883   9.815  1.00 64.66    -0.000 A 
HETATM   28  C51   D T 401       4.305  -5.206   8.882  1.00 64.50    -0.000 A 
HETATM   29  C52   D T 401       3.208  -4.433   9.294  1.00 63.39    -0.004 A 
ENDBRANCH  23  24
ENDBRANCH   1  23
BRANCH   1  30
HETATM   30  N58   D T 401       0.091  -2.009  10.590  1.00 60.63    -0.238 NA
HETATM   31  C18   D T 401       0.272  -0.955   9.813  1.00 62.24     0.274 C 
HETATM   32  O61   D T 401       0.777  -0.904   8.691  1.00 61.50    -0.268 OA
BRANCH  31  33
HETATM   33  C19   D T 401      -0.217   0.270  10.509  1.00 64.75     0.188 C 
BRANCH  33  34
HETATM   34  N20   D T 401       0.610   1.396  10.126  1.00 65.69    -0.211 NA
HETATM   35  C21   D T 401       1.486   1.889  10.962  1.00 66.79     0.343 C 
HETATM   36  N74   D T 401       1.716   3.191  10.962  1.00 71.41    -0.294 N 
HETATM   37  O76   D T 401       1.967   1.203  11.825  1.00 67.85    -0.245 OA
HETATM   38  C95   D T 401       0.710   4.213  10.658  1.00 70.78     0.131 C 
BRANCH  36  39
HETATM   39  C75   D T 401       3.016   3.718  11.345  1.00 74.33     0.152 C 
BRANCH  39  40
HETATM   40  C77   D T 401       3.900   3.594  10.147  1.00 76.44     0.088 A 
HETATM   41  C80   D T 401       4.003   4.559   9.138  1.00 78.25     0.053 A 
HETATM   42  S81   D T 401       5.140   4.035   7.946  1.00 82.00    -0.070 SA
HETATM   43  C82   D T 401       5.457   2.555   8.818  1.00 80.73     0.088 A 
HETATM   44  N83   D T 401       4.710   2.505   9.960  1.00 78.96    -0.245 NA
BRANCH  43  45
HETATM   45  C85   D T 401       6.448   1.607   8.243  1.00 81.61     0.047 C 
HETATM   46  C86   D T 401       6.748   0.453   9.208  1.00 81.16     0.007 C 
HETATM   47  C90   D T 401       7.711   2.386   7.837  1.00 82.31     0.007 C 
ENDBRANCH  43  45
ENDBRANCH  39  40
ENDBRANCH  36  39
ENDBRANCH  33  34
BRANCH  33  48
HETATM   48  C62   D T 401      -1.683   0.576  10.144  1.00 64.68     0.032 C 
HETATM   49  C64   D T 401      -2.325   1.536  11.129  1.00 64.29     0.003 C 
HETATM   50  C68   D T 401      -1.821   1.091   8.713  1.00 63.77     0.003 C 
ENDBRANCH  33  48
ENDBRANCH  31  33
ENDBRANCH   1  30
TORSDOF 18
ENDMDL
MODEL 9
REMARK VINA RESULT:    -8.195      2.660      7.425
REMARK INTER + INTRA:         -20.972
REMARK INTER:                 -17.400
REMARK INTRA:                  -3.572
REMARK UNBOUND:                -4.154
REMARK  18 active torsions:
REMARK  status: ('A' for Active; 'I' for Inactive)
REMARK    1  A    between atoms: C2_2  and  C6_6 
REMARK    2  A    between atoms: C6_6  and  O7_7 
REMARK    3  A    between atoms: O7_7  and  C10_8 
REMARK       I    between atoms: C10_8  and  N11_10 
REMARK    4  A    between atoms: N11_10  and  C12_11 
REMARK    5  A    between atoms: C12_11  and  C13_12 
REMARK    6  A    between atoms: C12_11  and  C26_15 
REMARK    7  A    between atoms: C13_12  and  C14_13 
REMARK    8  A    between atoms: C14_13  and  C15_14 
REMARK    9  A    between atoms: C15_14  and  C44_23 
REMARK   10  A    between atoms: C15_14  and  N58_30 
REMARK   11  A    between atoms: C26_15  and  C28_16 
REMARK   12  A    between atoms: C44_23  and  C45_24 
REMARK       I    between atoms: N58_30  and  C18_33 
REMARK   13  A    between atoms: N20_31  and  C19_32 
REMARK       I    between atoms: N20_31  and  C21_38 
REMARK   14  A    between atoms: C19_32  and  C18_33 
REMARK   15  A    between atoms: C19_32  and  C62_35 
REMARK       I    between atoms: C21_38  and  N74_39 
REMARK   16  A    between atoms: N74_39  and  C75_40 
REMARK   17  A    between atoms: C75_40  and  C77_42 
REMARK   18  A    between atoms: C82_45  and  C85_47 
ROOT
HETATM    1  C15   D T 401      -0.665  -0.393  11.270  1.00 59.81     0.113 C 
ENDROOT
BRANCH   1   2
HETATM    2  C14   D T 401      -1.199  -1.641  10.554  1.00 58.93     0.060 C 
BRANCH   2   3
HETATM    3  C13   D T 401      -0.956  -3.003  11.247  1.00 59.07     0.177 C 
HETATM    4  O41   D T 401       0.058  -3.691  10.523  1.00 58.43    -0.221 OA
BRANCH   3   5
HETATM    5  C12   D T 401      -2.179  -3.921  11.328  1.00 59.52     0.143 C 
BRANCH   5   6
HETATM    6  N11   D T 401      -1.856  -4.992  12.258  1.00 58.37    -0.211 NA
HETATM    7  C10   D T 401      -1.999  -6.244  11.859  1.00 59.08     0.384 C 
HETATM    8  O24   D T 401      -2.488  -6.502  10.760  1.00 59.19    -0.236 OA
BRANCH   7   9
HETATM    9  O7    D T 401      -1.553  -7.330  12.720  1.00 58.33    -0.278 OA
BRANCH   9  10
HETATM   10  C6    D T 401      -2.232  -8.565  12.589  1.00 59.85     0.188 C 
BRANCH  10  11
HETATM   11  C2    D T 401      -1.256  -9.553  12.040  1.00 62.87     0.058 A 
HETATM   12  C1    D T 401      -0.417  -9.564  10.931  1.00 63.59     0.104 A 
HETATM   13  N5    D T 401       0.278 -10.755  10.845  1.00 65.21    -0.235 NA
HETATM   14  C4    D T 401       0.033 -11.680  11.818  1.00 64.03     0.134 A 
HETATM   15  S3    D T 401      -1.149 -11.051  12.907  1.00 63.44    -0.066 SA
ENDBRANCH  10  11
ENDBRANCH   9  10
ENDBRANCH   7   9
ENDBRANCH   5   6
BRANCH   5  16
HETATM   16  C26   D T 401      -3.509  -3.243  11.720  1.00 59.99     0.053 C 
BRANCH  16  17
HETATM   17  C28   D T 401      -4.483  -3.182  10.548  1.00 61.27    -0.020 A 
HETATM   18  C31   D T 401      -4.802  -1.949   9.950  1.00 62.70    -0.004 A 
HETATM   19  C32   D T 401      -5.700  -1.871   8.866  1.00 62.25    -0.000 A 
HETATM   20  C33   D T 401      -6.289  -3.026   8.350  1.00 60.89    -0.000 A 
HETATM   21  C34   D T 401      -5.982  -4.257   8.935  1.00 61.83    -0.000 A 
HETATM   22  C35   D T 401      -5.088  -4.338  10.032  1.00 61.69    -0.004 A 
ENDBRANCH  16  17
ENDBRANCH   5  16
ENDBRANCH   3   5
ENDBRANCH   2   3
ENDBRANCH   1   2
BRANCH   1  23
HETATM   23  C44   D T 401      -0.883   0.855  10.396  1.00 61.03     0.051 C 
BRANCH  23  24
HETATM   24  C45   D T 401      -2.314   1.123   9.940  1.00 62.14    -0.020 A 
HETATM   25  C48   D T 401      -3.236   1.381  10.953  1.00 62.95    -0.004 A 
HETATM   26  C49   D T 401      -4.581   1.678  10.681  1.00 63.23    -0.000 A 
HETATM   27  C50   D T 401      -5.016   1.729   9.359  1.00 64.66    -0.000 A 
HETATM   28  C51   D T 401      -4.101   1.476   8.327  1.00 64.50    -0.000 A 
HETATM   29  C52   D T 401      -2.757   1.181   8.605  1.00 63.39    -0.004 A 
ENDBRANCH  23  24
ENDBRANCH   1  23
BRANCH   1  30
HETATM   30  N58   D T 401       0.757  -0.431  11.475  1.00 60.63    -0.238 NA
HETATM   31  C18   D T 401       1.464   0.228  12.377  1.00 62.24     0.274 C 
HETATM   32  O61   D T 401       1.065   0.971  13.274  1.00 61.50    -0.268 OA
BRANCH  31  33
HETATM   33  C19   D T 401       2.917  -0.023  12.154  1.00 64.75     0.188 C 
BRANCH  33  34
HETATM   34  N20   D T 401       3.077  -1.250  11.402  1.00 65.69    -0.211 NA
HETATM   35  C21   D T 401       3.519  -2.333  11.987  1.00 66.79     0.343 C 
HETATM   36  N74   D T 401       4.289  -3.166  11.308  1.00 71.41    -0.294 N 
HETATM   37  O76   D T 401       3.363  -2.502  13.168  1.00 67.85    -0.245 OA
HETATM   38  C95   D T 401       5.237  -2.759  10.265  1.00 70.78     0.131 C 
BRANCH  36  39
HETATM   39  C75   D T 401       4.297  -4.588  11.608  1.00 74.33     0.152 C 
BRANCH  39  40
HETATM   40  C77   D T 401       5.642  -4.899  12.178  1.00 76.44     0.088 A 
HETATM   41  C80   D T 401       6.029  -4.608  13.492  1.00 78.25     0.053 A 
HETATM   42  S81   D T 401       7.653  -5.143  13.751  1.00 82.00    -0.070 SA
HETATM   43  C82   D T 401       7.775  -5.746  12.116  1.00 80.73     0.088 A 
HETATM   44  N83   D T 401       6.608  -5.530  11.440  1.00 78.96    -0.245 NA
BRANCH  43  45
HETATM   45  C85   D T 401       9.052  -6.386  11.704  1.00 81.61     0.047 C 
HETATM   46  C86   D T 401       9.733  -5.606  10.572  1.00 81.16     0.007 C 
HETATM   47  C90   D T 401       8.781  -7.854  11.334  1.00 82.31     0.007 C 
ENDBRANCH  43  45
ENDBRANCH  39  40
ENDBRANCH  36  39
ENDBRANCH  33  34
BRANCH  33  48
HETATM   48  C62   D T 401       3.573   1.133  11.374  1.00 64.68     0.032 C 
HETATM   49  C64   D T 401       5.037   1.308  11.741  1.00 64.29     0.003 C 
HETATM   50  C68   D T 401       3.406   0.974   9.864  1.00 63.77     0.003 C 
ENDBRANCH  33  48
ENDBRANCH  31  33
ENDBRANCH   1  30
TORSDOF 18
ENDMDL
