MODEL 1
REMARK VINA RESULT:   -10.496      0.000      0.000
REMARK INTER + INTRA:         -12.136
REMARK INTER:                 -11.724
REMARK INTRA:                  -0.412
REMARK UNBOUND:                -0.412
REMARK  2 active torsions:
REMARK  status: ('A' for Active; 'I' for Inactive)
REMARK    1  A    between atoms: CAX_24  and  NBD_30 
REMARK    2  A    between atoms: CAY_25  and  CAZ_26 
ROOT
HETATM    1  CAE   D T 501      -2.898  -2.350  11.346  1.00 28.11     0.002 A 
HETATM    2  CAF   D T 501      -4.677  -3.578  10.279  1.00 31.06     0.002 A 
HETATM    3  CAG   D T 501      -3.561  -1.148  11.044  1.00 28.67     0.017 A 
HETATM    4  CAH   D T 501      -5.325  -2.379   9.951  1.00 30.46     0.017 A 
HETATM    5  CAK   D T 501      -3.449  -6.058  11.247  1.00 23.78     0.102 A 
HETATM    6  CAL   D T 501       0.757  -7.595  12.057  1.00 24.69     0.124 A 
HETATM    7  CAM   D T 501      -1.440  -4.778  11.443  1.00 24.63     0.104 A 
HETATM    8  NAS   D T 501      -2.745  -7.188  11.465  1.00 20.85    -0.225 NA
HETATM    9  NAT   D T 501       0.710  -6.240  11.935  1.00 25.16    -0.162 NA
HETATM   10  CAV   D T 501      -3.470  -3.572  10.985  1.00 25.80     0.003 A 
HETATM   11  CAW   D T 501      -2.807  -4.797  11.254  1.00 25.02     0.038 A 
HETATM   12  CAX   D T 501      -4.750  -1.158  10.322  1.00 27.25     0.056 A 
HETATM   13  CAZ   D T 501      -0.423  -8.010  11.892  1.00 24.84     0.057 A 
HETATM   14  CBC   D T 501      -1.414  -7.157  11.673  1.00 23.94     0.165 A 
HETATM   15  NBE   D T 501      -0.760  -5.917  11.663  1.00 26.21    -0.211 N 
ENDROOT
BRANCH  13  16
HETATM   16  CAY   D T 501      -0.579  -9.430  12.005  1.00 23.50     0.007 A 
HETATM   17  CAD   D T 501      -0.296 -10.192  10.907  1.00 28.61     0.021 A 
HETATM   18  CAC   D T 501      -0.456 -11.565  10.937  1.00 31.28     0.099 A 
HETATM   19  NAR   D T 501      -0.893 -12.201  12.012  1.00 29.97    -0.244 NA
HETATM   20  CBA   D T 501      -1.188 -11.531  13.126  1.00 29.39     0.081 A 
HETATM   21  CAI   D T 501      -1.652 -12.213  14.264  1.00 24.64     0.019 A 
HETATM   22  CBB   D T 501      -1.061 -10.098  13.164  1.00 25.45     0.018 A 
HETATM   23  CAA   D T 501      -1.982 -11.517  15.396  1.00 25.05     0.002 A 
HETATM   24  CAB   D T 501      -1.864 -10.150  15.449  1.00 24.88     0.000 A 
HETATM   25  CAJ   D T 501      -1.419  -9.435  14.345  1.00 27.86     0.002 A 
ENDBRANCH  13  16
BRANCH  12  26
HETATM   26  NBD   D T 501      -5.428   0.127   9.981  1.00 33.43    -0.344 N 
HETATM   27  CAP   D T 501      -6.003   0.227   8.638  1.00 26.51     0.140 C 
HETATM   28  CAN   D T 501      -4.881   0.818   7.721  1.00 28.69     0.314 C 
HETATM   29  NAU   D T 501      -4.328   2.005   8.275  1.00 26.40     0.343 N 
HETATM   30  CAO   D T 501      -3.764   1.835   9.588  1.00 27.47     0.314 C 
HETATM   31  CAQ   D T 501      -4.852   1.327  10.549  1.00 29.57     0.140 C 
ENDBRANCH  12  26
TORSDOF 2
ENDMDL
MODEL 2
REMARK VINA RESULT:   -10.202      1.910     10.599
REMARK INTER + INTRA:         -11.808
REMARK INTER:                 -12.915
REMARK INTRA:                   1.108
REMARK UNBOUND:                -0.412
REMARK  2 active torsions:
REMARK  status: ('A' for Active; 'I' for Inactive)
REMARK    1  A    between atoms: CAX_24  and  NBD_30 
REMARK    2  A    between atoms: CAY_25  and  CAZ_26 
ROOT
HETATM    1  CAE   D T 501      -3.662  -7.673  12.199  1.00 28.11     0.002 A 
HETATM    2  CAF   D T 501      -1.309  -7.167  12.330  1.00 31.06     0.002 A 
HETATM    3  CAG   D T 501      -3.386  -9.001  12.568  1.00 28.67     0.017 A 
HETATM    4  CAH   D T 501      -1.029  -8.498  12.670  1.00 30.46     0.017 A 
HETATM    5  CAK   D T 501      -1.967  -4.340  11.920  1.00 23.78     0.102 A 
HETATM    6  CAL   D T 501      -5.099  -1.947   9.645  1.00 24.69     0.124 A 
HETATM    7  CAM   D T 501      -4.018  -5.136  10.989  1.00 24.63     0.104 A 
HETATM    8  NAS   D T 501      -2.250  -3.099  11.472  1.00 20.85    -0.225 NA
HETATM    9  NAT   D T 501      -5.441  -3.257   9.784  1.00 25.16    -0.162 NA
HETATM   10  CAV   D T 501      -2.623  -6.745  12.104  1.00 25.80     0.003 A 
HETATM   11  CAW   D T 501      -2.872  -5.406  11.707  1.00 25.02     0.038 A 
HETATM   12  CAX   D T 501      -2.075  -9.421  12.770  1.00 27.25     0.056 A 
HETATM   13  CAZ   D T 501      -3.977  -1.809  10.205  1.00 24.84     0.057 A 
HETATM   14  CBC   D T 501      -3.384  -2.840  10.792  1.00 23.94     0.165 A 
HETATM   15  NBE   D T 501      -4.282  -3.890  10.556  1.00 26.21    -0.211 N 
ENDROOT
BRANCH  13  16
HETATM   16  CAY   D T 501      -3.455  -0.476  10.178  1.00 23.50     0.007 A 
HETATM   17  CAD   D T 501      -2.356  -0.204  10.942  1.00 28.61     0.021 A 
HETATM   18  CAC   D T 501      -1.820   1.070  10.987  1.00 31.28     0.099 A 
HETATM   19  NAR   D T 501      -2.342   2.079  10.308  1.00 29.97    -0.244 NA
HETATM   20  CBA   D T 501      -3.413   1.897   9.535  1.00 29.39     0.081 A 
HETATM   21  CAI   D T 501      -3.962   2.974   8.817  1.00 24.64     0.019 A 
HETATM   22  CBB   D T 501      -4.034   0.602   9.452  1.00 25.45     0.018 A 
HETATM   23  CAA   D T 501      -5.080   2.789   8.048  1.00 25.05     0.002 A 
HETATM   24  CAB   D T 501      -5.682   1.558   7.956  1.00 24.88     0.000 A 
HETATM   25  CAJ   D T 501      -5.179   0.470   8.656  1.00 27.86     0.002 A 
ENDBRANCH  13  16
BRANCH  12  26
HETATM   26  NBD   D T 501      -1.793 -10.841  13.132  1.00 33.43    -0.344 N 
HETATM   27  CAP   D T 501      -2.939 -11.647  13.561  1.00 26.51     0.140 C 
HETATM   28  CAN   D T 501      -3.031 -11.489  15.115  1.00 28.69     0.314 C 
HETATM   29  NAU   D T 501      -1.784 -11.760  15.741  1.00 26.40     0.343 N 
HETATM   30  CAO   D T 501      -0.704 -10.922  15.288  1.00 27.47     0.314 C 
HETATM   31  CAQ   D T 501      -0.522 -11.101  13.770  1.00 29.57     0.140 C 
ENDBRANCH  12  26
TORSDOF 2
ENDMDL
MODEL 3
REMARK VINA RESULT:   -10.167      5.616      8.907
REMARK INTER + INTRA:         -11.768
REMARK INTER:                 -11.779
REMARK INTRA:                   0.011
REMARK UNBOUND:                -0.412
REMARK  2 active torsions:
REMARK  status: ('A' for Active; 'I' for Inactive)
REMARK    1  A    between atoms: CAX_24  and  NBD_30 
REMARK    2  A    between atoms: CAY_25  and  CAZ_26 
ROOT
HETATM    1  CAE   D T 501       1.151   3.156  10.841  1.00 28.11     0.002 A 
HETATM    2  CAF   D T 501       2.316   1.056  10.624  1.00 31.06     0.002 A 
HETATM    3  CAG   D T 501       2.384   3.810  11.003  1.00 28.67     0.017 A 
HETATM    4  CAH   D T 501       3.544   1.704  10.815  1.00 30.46     0.017 A 
HETATM    5  CAK   D T 501      -0.237  -0.205   9.925  1.00 23.78     0.102 A 
HETATM    6  CAL   D T 501      -4.623   0.326  11.018  1.00 24.69     0.124 A 
HETATM    7  CAM   D T 501      -1.255   1.668  11.003  1.00 24.63     0.104 A 
HETATM    8  NAS   D T 501      -1.437  -0.819   9.867  1.00 20.85    -0.225 NA
HETATM    9  NAT   D T 501      -3.863   1.401  11.364  1.00 25.16    -0.162 NA
HETATM   10  CAV   D T 501       1.117   1.776  10.624  1.00 25.80     0.003 A 
HETATM   11  CAW   D T 501      -0.116   1.088  10.483  1.00 25.02     0.038 A 
HETATM   12  CAX   D T 501       3.572   3.087  11.025  1.00 27.25     0.056 A 
HETATM   13  CAZ   D T 501      -3.838  -0.512  10.492  1.00 24.84     0.057 A 
HETATM   14  CBC   D T 501      -2.549  -0.235  10.356  1.00 23.94     0.165 A 
HETATM   15  NBE   D T 501      -2.442   1.040  10.930  1.00 26.21    -0.211 N 
ENDROOT
BRANCH  13  16
HETATM   16  CAY   D T 501      -4.465  -1.718  10.042  1.00 23.50     0.007 A 
HETATM   17  CAD   D T 501      -5.525  -1.607   9.187  1.00 28.61     0.021 A 
HETATM   18  CAC   D T 501      -6.196  -2.729   8.738  1.00 31.28     0.099 A 
HETATM   19  NAR   D T 501      -5.858  -3.951   9.117  1.00 29.97    -0.244 NA
HETATM   20  CBA   D T 501      -4.833  -4.147   9.948  1.00 29.39     0.081 A 
HETATM   21  CAI   D T 501      -4.480  -5.448  10.346  1.00 24.64     0.019 A 
HETATM   22  CBB   D T 501      -4.098  -3.025  10.468  1.00 25.45     0.018 A 
HETATM   23  CAA   D T 501      -3.447  -5.642  11.223  1.00 25.05     0.002 A 
HETATM   24  CAB   D T 501      -2.733  -4.582  11.725  1.00 24.88     0.000 A 
HETATM   25  CAJ   D T 501      -3.055  -3.279  11.367  1.00 27.86     0.002 A 
ENDBRANCH  13  16
BRANCH  12  26
HETATM   26  NBD   D T 501       4.871   3.790  11.230  1.00 33.43    -0.344 N 
HETATM   27  CAP   D T 501       5.180   4.879  10.301  1.00 26.51     0.140 C 
HETATM   28  CAN   D T 501       5.958   4.232   9.106  1.00 28.69     0.314 C 
HETATM   29  NAU   D T 501       7.052   3.446   9.563  1.00 26.40     0.343 N 
HETATM   30  CAO   D T 501       6.679   2.383  10.459  1.00 27.47     0.314 C 
HETATM   31  CAQ   D T 501       5.976   2.978  11.692  1.00 29.57     0.140 C 
ENDBRANCH  12  26
TORSDOF 2
ENDMDL
MODEL 4
REMARK VINA RESULT:    -9.922      6.146      9.354
REMARK INTER + INTRA:         -11.495
REMARK INTER:                 -11.663
REMARK INTRA:                   0.168
REMARK UNBOUND:                -0.412
REMARK  2 active torsions:
REMARK  status: ('A' for Active; 'I' for Inactive)
REMARK    1  A    between atoms: CAX_24  and  NBD_30 
REMARK    2  A    between atoms: CAY_25  and  CAZ_26 
ROOT
HETATM    1  CAE   D T 501       2.134   3.227   9.964  1.00 28.11     0.002 A 
HETATM    2  CAF   D T 501       3.476   1.274  10.402  1.00 31.06     0.002 A 
HETATM    3  CAG   D T 501       3.305   3.996   9.864  1.00 28.67     0.017 A 
HETATM    4  CAH   D T 501       4.644   2.045  10.331  1.00 30.46     0.017 A 
HETATM    5  CAK   D T 501       1.040  -0.349  10.237  1.00 23.78     0.102 A 
HETATM    6  CAL   D T 501      -3.369   0.153  11.247  1.00 24.69     0.124 A 
HETATM    7  CAM   D T 501      -0.133   1.685  10.683  1.00 24.63     0.104 A 
HETATM    8  NAS   D T 501      -0.103  -1.043  10.422  1.00 20.85    -0.225 NA
HETATM    9  NAT   D T 501      -2.705   1.340  11.199  1.00 25.16    -0.162 NA
HETATM   10  CAV   D T 501       2.219   1.855  10.209  1.00 25.80     0.003 A 
HETATM   11  CAW   D T 501       1.050   1.061  10.341  1.00 25.02     0.038 A 
HETATM   12  CAX   D T 501       4.552   3.418  10.079  1.00 27.25     0.056 A 
HETATM   13  CAZ   D T 501      -2.518  -0.744  10.995  1.00 24.84     0.057 A 
HETATM   14  CBC   D T 501      -1.258  -0.423  10.732  1.00 23.94     0.165 A 
HETATM   15  NBE   D T 501      -1.260   0.973  10.858  1.00 26.21    -0.211 N 
ENDROOT
BRANCH  13  16
HETATM   16  CAY   D T 501      -3.039  -2.078  10.983  1.00 23.50     0.007 A 
HETATM   17  CAD   D T 501      -2.375  -3.030  11.701  1.00 28.61     0.021 A 
HETATM   18  CAC   D T 501      -2.805  -4.344  11.707  1.00 31.28     0.099 A 
HETATM   19  NAR   D T 501      -3.863  -4.742  11.018  1.00 29.97    -0.244 NA
HETATM   20  CBA   D T 501      -4.570  -3.874  10.294  1.00 29.39     0.081 A 
HETATM   21  CAI   D T 501      -5.692  -4.304   9.565  1.00 24.64     0.019 A 
HETATM   22  CBB   D T 501      -4.171  -2.493  10.228  1.00 25.45     0.018 A 
HETATM   23  CAA   D T 501      -6.396  -3.415   8.798  1.00 25.05     0.002 A 
HETATM   24  CAB   D T 501      -6.031  -2.093   8.727  1.00 24.88     0.000 A 
HETATM   25  CAJ   D T 501      -4.923  -1.628   9.423  1.00 27.86     0.002 A 
ENDBRANCH  13  16
BRANCH  12  26
HETATM   26  NBD   D T 501       5.786   4.253  10.000  1.00 33.43    -0.344 N 
HETATM   27  CAP   D T 501       5.643   5.578   9.393  1.00 26.51     0.140 C 
HETATM   28  CAN   D T 501       5.921   5.394   7.863  1.00 28.69     0.314 C 
HETATM   29  NAU   D T 501       7.148   4.712   7.637  1.00 26.40     0.343 N 
HETATM   30  CAO   D T 501       7.218   3.409   8.245  1.00 27.47     0.314 C 
HETATM   31  CAQ   D T 501       7.026   3.546   9.766  1.00 29.57     0.140 C 
ENDBRANCH  12  26
TORSDOF 2
ENDMDL
MODEL 5
REMARK VINA RESULT:    -9.735      1.635     10.360
REMARK INTER + INTRA:         -11.286
REMARK INTER:                 -12.394
REMARK INTRA:                   1.109
REMARK UNBOUND:                -0.412
REMARK  2 active torsions:
REMARK  status: ('A' for Active; 'I' for Inactive)
REMARK    1  A    between atoms: CAX_24  and  NBD_30 
REMARK    2  A    between atoms: CAY_25  and  CAZ_26 
ROOT
HETATM    1  CAE   D T 501      -1.014  -8.052  12.635  1.00 28.11     0.002 A 
HETATM    2  CAF   D T 501      -3.364  -8.585  12.699  1.00 31.06     0.002 A 
HETATM    3  CAG   D T 501      -0.721  -9.333  13.131  1.00 28.67     0.017 A 
HETATM    4  CAH   D T 501      -3.074  -9.853  13.222  1.00 30.46     0.017 A 
HETATM    5  CAK   D T 501      -3.902  -6.053  11.323  1.00 23.78     0.102 A 
HETATM    6  CAL   D T 501      -2.105  -1.873  11.218  1.00 24.69     0.124 A 
HETATM    7  CAM   D T 501      -1.759  -5.366  12.124  1.00 24.63     0.104 A 
HETATM    8  NAS   D T 501      -4.159  -4.786  10.936  1.00 20.85    -0.225 NA
HETATM    9  NAT   D T 501      -1.265  -2.790  11.772  1.00 25.16    -0.162 NA
HETATM   10  CAV   D T 501      -2.339  -7.684  12.392  1.00 25.80     0.003 A 
HETATM   11  CAW   D T 501      -2.663  -6.387  11.916  1.00 25.02     0.038 A 
HETATM   12  CAX   D T 501      -1.744 -10.218  13.456  1.00 27.25     0.056 A 
HETATM   13  CAZ   D T 501      -3.158  -2.495  10.905  1.00 24.84     0.057 A 
HETATM   14  CBC   D T 501      -3.260  -3.799  11.122  1.00 23.94     0.165 A 
HETATM   15  NBE   D T 501      -2.034  -4.111  11.726  1.00 26.21    -0.211 N 
ENDROOT
BRANCH  13  16
HETATM   16  CAY   D T 501      -4.166  -1.690  10.283  1.00 23.50     0.007 A 
HETATM   17  CAD   D T 501      -5.246  -2.326   9.741  1.00 28.61     0.021 A 
HETATM   18  CAC   D T 501      -6.240  -1.612   9.097  1.00 31.28     0.099 A 
HETATM   19  NAR   D T 501      -6.191  -0.296   8.967  1.00 29.97    -0.244 NA
HETATM   20  CBA   D T 501      -5.172   0.401   9.471  1.00 29.39     0.081 A 
HETATM   21  CAI   D T 501      -5.128   1.798   9.328  1.00 24.64     0.019 A 
HETATM   22  CBB   D T 501      -4.094  -0.277  10.140  1.00 25.45     0.018 A 
HETATM   23  CAA   D T 501      -4.064   2.506   9.821  1.00 25.05     0.002 A 
HETATM   24  CAB   D T 501      -3.028   1.875  10.465  1.00 24.88     0.000 A 
HETATM   25  CAJ   D T 501      -3.027   0.495  10.619  1.00 27.86     0.002 A 
ENDBRANCH  13  16
BRANCH  12  26
HETATM   26  NBD   D T 501      -1.420 -11.564  14.012  1.00 33.43    -0.344 N 
HETATM   27  CAP   D T 501      -0.038 -12.022  13.855  1.00 26.51     0.140 C 
HETATM   28  CAN   D T 501       0.017 -12.800  12.498  1.00 28.69     0.314 C 
HETATM   29  NAU   D T 501      -1.001 -13.790  12.425  1.00 26.40     0.343 N 
HETATM   30  CAO   D T 501      -2.336 -13.273  12.569  1.00 27.47     0.314 C 
HETATM   31  CAQ   D T 501      -2.464 -12.562  13.928  1.00 29.57     0.140 C 
ENDBRANCH  12  26
TORSDOF 2
ENDMDL
MODEL 6
REMARK VINA RESULT:    -9.721      1.518      2.253
REMARK INTER + INTRA:         -11.270
REMARK INTER:                 -10.782
REMARK INTRA:                  -0.488
REMARK UNBOUND:                -0.412
REMARK  2 active torsions:
REMARK  status: ('A' for Active; 'I' for Inactive)
REMARK    1  A    between atoms: CAX_24  and  NBD_30 
REMARK    2  A    between atoms: CAY_25  and  CAZ_26 
ROOT
HETATM    1  CAE   D T 501      -4.369  -3.329  10.683  1.00 28.11     0.002 A 
HETATM    2  CAF   D T 501      -2.193  -2.454  11.236  1.00 31.06     0.002 A 
HETATM    3  CAG   D T 501      -4.813  -2.024  10.411  1.00 28.67     0.017 A 
HETATM    4  CAH   D T 501      -2.642  -1.149  10.994  1.00 30.46     0.017 A 
HETATM    5  CAK   D T 501      -1.214  -5.210  11.434  1.00 23.78     0.102 A 
HETATM    6  CAL   D T 501      -2.879  -9.251  12.703  1.00 24.69     0.124 A 
HETATM    7  CAM   D T 501      -3.506  -5.815  11.734  1.00 24.63     0.104 A 
HETATM    8  NAS   D T 501      -0.843  -6.461  11.780  1.00 20.85    -0.225 NA
HETATM    9  NAT   D T 501      -3.855  -8.332  12.473  1.00 25.16    -0.162 NA
HETATM   10  CAV   D T 501      -3.046  -3.549  11.072  1.00 25.80     0.003 A 
HETATM   11  CAW   D T 501      -2.581  -4.854  11.378  1.00 25.02     0.038 A 
HETATM   12  CAX   D T 501      -3.967  -0.935  10.597  1.00 27.25     0.056 A 
HETATM   13  CAZ   D T 501      -1.780  -8.667  12.492  1.00 24.84     0.057 A 
HETATM   14  CBC   D T 501      -1.754  -7.399  12.102  1.00 23.94     0.165 A 
HETATM   15  NBE   D T 501      -3.114  -7.057  12.070  1.00 26.21    -0.211 N 
ENDROOT
BRANCH  13  16
HETATM   16  CAY   D T 501      -0.621  -9.489  12.667  1.00 23.50     0.007 A 
HETATM   17  CAD   D T 501      -0.153 -10.173  11.581  1.00 28.61     0.021 A 
HETATM   18  CAC   D T 501       0.942 -11.010  11.687  1.00 31.28     0.099 A 
HETATM   19  NAR   D T 501       1.578 -11.196  12.833  1.00 29.97    -0.244 NA
HETATM   20  CBA   D T 501       1.187 -10.563  13.940  1.00 29.39     0.081 A 
HETATM   21  CAI   D T 501       1.869 -10.766  15.153  1.00 24.64     0.019 A 
HETATM   22  CBB   D T 501       0.046  -9.689  13.907  1.00 25.45     0.018 A 
HETATM   23  CAA   D T 501       1.444 -10.138  16.292  1.00 25.05     0.002 A 
HETATM   24  CAB   D T 501       0.358  -9.297  16.278  1.00 24.88     0.000 A 
HETATM   25  CAJ   D T 501      -0.350  -9.077  15.104  1.00 27.86     0.002 A 
ENDBRANCH  13  16
BRANCH  12  26
HETATM   26  NBD   D T 501      -4.460   0.448  10.335  1.00 33.43    -0.344 N 
HETATM   27  CAP   D T 501      -5.642   0.570   9.479  1.00 26.51     0.140 C 
HETATM   28  CAN   D T 501      -5.113   0.706   8.012  1.00 28.69     0.314 C 
HETATM   29  NAU   D T 501      -4.133   1.730   7.906  1.00 26.40     0.343 N 
HETATM   30  CAO   D T 501      -2.989   1.542   8.759  1.00 27.47     0.314 C 
HETATM   31  CAQ   D T 501      -3.452   1.480  10.225  1.00 29.57     0.140 C 
ENDBRANCH  12  26
TORSDOF 2
ENDMDL
MODEL 7
REMARK VINA RESULT:    -9.591      7.200     11.139
REMARK INTER + INTRA:         -11.125
REMARK INTER:                 -10.776
REMARK INTRA:                  -0.349
REMARK UNBOUND:                -0.412
REMARK  2 active torsions:
REMARK  status: ('A' for Active; 'I' for Inactive)
REMARK    1  A    between atoms: CAX_24  and  NBD_30 
REMARK    2  A    between atoms: CAY_25  and  CAZ_26 
ROOT
HETATM    1  CAE   D T 501       4.265   2.689   9.105  1.00 28.11     0.002 A 
HETATM    2  CAF   D T 501       4.493   0.388   8.426  1.00 31.06     0.002 A 
HETATM    3  CAG   D T 501       5.612   2.909   8.772  1.00 28.67     0.017 A 
HETATM    4  CAH   D T 501       5.844   0.599   8.121  1.00 30.46     0.017 A 
HETATM    5  CAK   D T 501       1.600   0.071   8.784  1.00 23.78     0.102 A 
HETATM    6  CAL   D T 501      -1.618   1.747  11.531  1.00 24.69     0.124 A 
HETATM    7  CAM   D T 501       1.743   1.994  10.195  1.00 24.63     0.104 A 
HETATM    8  NAS   D T 501       0.334  -0.135   9.201  1.00 20.85    -0.225 NA
HETATM    9  NAT   D T 501      -0.473   2.482  11.557  1.00 25.16    -0.162 NA
HETATM   10  CAV   D T 501       3.694   1.430   8.908  1.00 25.80     0.003 A 
HETATM   11  CAW   D T 501       2.344   1.175   9.260  1.00 25.02     0.038 A 
HETATM   12  CAX   D T 501       6.408   1.864   8.315  1.00 27.25     0.056 A 
HETATM   13  CAZ   D T 501      -1.413   0.794  10.729  1.00 24.84     0.057 A 
HETATM   14  CBC   D T 501      -0.253   0.683  10.095  1.00 23.94     0.165 A 
HETATM   15  NBE   D T 501       0.477   1.772  10.592  1.00 26.21    -0.211 N 
ENDROOT
BRANCH  13  16
HETATM   16  CAY   D T 501      -2.526  -0.090  10.553  1.00 23.50     0.007 A 
HETATM   17  CAD   D T 501      -2.447  -1.335  11.109  1.00 28.61     0.021 A 
HETATM   18  CAC   D T 501      -3.472  -2.249  10.951  1.00 31.28     0.099 A 
HETATM   19  NAR   D T 501      -4.563  -1.971  10.254  1.00 29.97    -0.244 NA
HETATM   20  CBA   D T 501      -4.720  -0.777   9.682  1.00 29.39     0.081 A 
HETATM   21  CAI   D T 501      -5.881  -0.490   8.944  1.00 24.64     0.019 A 
HETATM   22  CBB   D T 501      -3.687   0.219   9.792  1.00 25.45     0.018 A 
HETATM   23  CAA   D T 501      -6.024   0.727   8.334  1.00 25.05     0.002 A 
HETATM   24  CAB   D T 501      -5.049   1.690   8.431  1.00 24.88     0.000 A 
HETATM   25  CAJ   D T 501      -3.882   1.444   9.142  1.00 27.86     0.002 A 
ENDBRANCH  13  16
BRANCH  12  26
HETATM   26  NBD   D T 501       7.846   2.104   7.995  1.00 33.43    -0.344 N 
HETATM   27  CAP   D T 501       8.673   0.918   7.767  1.00 26.51     0.140 C 
HETATM   28  CAN   D T 501       9.266   0.520   9.160  1.00 28.69     0.314 C 
HETATM   29  NAU   D T 501       9.891   1.629   9.794  1.00 26.40     0.343 N 
HETATM   30  CAO   D T 501       9.020   2.755  10.005  1.00 27.47     0.314 C 
HETATM   31  CAQ   D T 501       8.469   3.234   8.650  1.00 29.57     0.140 C 
ENDBRANCH  12  26
TORSDOF 2
ENDMDL
MODEL 8
REMARK VINA RESULT:    -9.428      5.937      8.829
REMARK INTER + INTRA:         -10.943
REMARK INTER:                 -10.649
REMARK INTRA:                  -0.294
REMARK UNBOUND:                -0.412
REMARK  2 active torsions:
REMARK  status: ('A' for Active; 'I' for Inactive)
REMARK    1  A    between atoms: CAX_24  and  NBD_30 
REMARK    2  A    between atoms: CAY_25  and  CAZ_26 
ROOT
HETATM    1  CAE   D T 501       2.974   1.006  11.393  1.00 28.11     0.002 A 
HETATM    2  CAF   D T 501       2.765   0.679   9.014  1.00 31.06     0.002 A 
HETATM    3  CAG   D T 501       4.141   1.756  11.177  1.00 28.67     0.017 A 
HETATM    4  CAH   D T 501       3.946   1.402   8.799  1.00 30.46     0.017 A 
HETATM    5  CAK   D T 501       0.149  -0.559   9.486  1.00 23.78     0.102 A 
HETATM    6  CAL   D T 501      -1.796  -3.101  12.721  1.00 24.69     0.124 A 
HETATM    7  CAM   D T 501       0.921  -0.921  11.718  1.00 24.63     0.104 A 
HETATM    8  NAS   D T 501      -0.913  -1.353   9.730  1.00 20.85    -0.225 NA
HETATM    9  NAT   D T 501      -0.653  -2.497  13.147  1.00 25.16    -0.162 NA
HETATM   10  CAV   D T 501       2.267   0.486  10.307  1.00 25.80     0.003 A 
HETATM   11  CAW   D T 501       1.100  -0.297  10.500  1.00 25.02     0.038 A 
HETATM   12  CAX   D T 501       4.646   1.926   9.891  1.00 27.25     0.056 A 
HETATM   13  CAZ   D T 501      -1.955  -2.757  11.517  1.00 24.84     0.057 A 
HETATM   14  CBC   D T 501      -1.092  -1.939  10.930  1.00 23.94     0.165 A 
HETATM   15  NBE   D T 501      -0.149  -1.706  11.940  1.00 26.21    -0.211 N 
ENDROOT
BRANCH  13  16
HETATM   16  CAY   D T 501      -3.131  -3.286  10.894  1.00 23.50     0.007 A 
HETATM   17  CAD   D T 501      -3.200  -4.636  10.700  1.00 28.61     0.021 A 
HETATM   18  CAC   D T 501      -4.292  -5.209  10.076  1.00 31.28     0.099 A 
HETATM   19  NAR   D T 501      -5.309  -4.488   9.632  1.00 29.97    -0.244 NA
HETATM   20  CBA   D T 501      -5.322  -3.163   9.785  1.00 29.39     0.081 A 
HETATM   21  CAI   D T 501      -6.406  -2.404   9.311  1.00 24.64     0.019 A 
HETATM   22  CBB   D T 501      -4.211  -2.497  10.412  1.00 25.45     0.018 A 
HETATM   23  CAA   D T 501      -6.400  -1.041   9.444  1.00 25.05     0.002 A 
HETATM   24  CAB   D T 501      -5.349  -0.390  10.042  1.00 24.88     0.000 A 
HETATM   25  CAJ   D T 501      -4.254  -1.100  10.515  1.00 27.86     0.002 A 
ENDBRANCH  13  16
BRANCH  12  26
HETATM   26  NBD   D T 501       5.904   2.699   9.678  1.00 33.43    -0.344 N 
HETATM   27  CAP   D T 501       6.254   3.677  10.711  1.00 26.51     0.140 C 
HETATM   28  CAN   D T 501       5.597   5.030  10.277  1.00 28.69     0.314 C 
HETATM   29  NAU   D T 501       5.930   5.363   8.935  1.00 26.40     0.343 N 
HETATM   30  CAO   D T 501       5.543   4.369   7.969  1.00 27.47     0.314 C 
HETATM   31  CAQ   D T 501       6.228   3.034   8.309  1.00 29.57     0.140 C 
ENDBRANCH  12  26
TORSDOF 2
ENDMDL
MODEL 9
REMARK VINA RESULT:    -9.402      6.805     10.465
REMARK INTER + INTRA:         -10.913
REMARK INTER:                 -10.479
REMARK INTRA:                  -0.434
REMARK UNBOUND:                -0.412
REMARK  2 active torsions:
REMARK  status: ('A' for Active; 'I' for Inactive)
REMARK    1  A    between atoms: CAX_24  and  NBD_30 
REMARK    2  A    between atoms: CAY_25  and  CAZ_26 
ROOT
HETATM    1  CAE   D T 501       4.006   2.457   9.172  1.00 28.11     0.002 A 
HETATM    2  CAF   D T 501       4.061   0.219   8.279  1.00 31.06     0.002 A 
HETATM    3  CAG   D T 501       5.378   2.588   8.900  1.00 28.67     0.017 A 
HETATM    4  CAH   D T 501       5.436   0.338   8.034  1.00 30.46     0.017 A 
HETATM    5  CAK   D T 501       1.141   0.126   8.524  1.00 23.78     0.102 A 
HETATM    6  CAL   D T 501      -2.020   1.814  11.330  1.00 24.69     0.124 A 
HETATM    7  CAM   D T 501       1.396   1.887  10.118  1.00 24.63     0.104 A 
HETATM    8  NAS   D T 501      -0.153  -0.006   8.883  1.00 20.85    -0.225 NA
HETATM    9  NAT   D T 501      -0.818   2.439  11.459  1.00 25.16    -0.162 NA
HETATM   10  CAV   D T 501       3.337   1.277   8.837  1.00 25.80     0.003 A 
HETATM   11  CAW   D T 501       1.958   1.110   9.126  1.00 25.02     0.038 A 
HETATM   12  CAX   D T 501       6.098   1.524   8.365  1.00 27.25     0.056 A 
HETATM   13  CAZ   D T 501      -1.868   0.926  10.446  1.00 24.84     0.057 A 
HETATM   14  CBC   D T 501      -0.700   0.773   9.836  1.00 23.94     0.165 A 
HETATM   15  NBE   D T 501       0.102   1.741  10.457  1.00 26.21    -0.211 N 
ENDROOT
BRANCH  13  16
HETATM   16  CAY   D T 501      -3.045   0.164  10.154  1.00 23.50     0.007 A 
HETATM   17  CAD   D T 501      -4.056   0.785   9.475  1.00 28.61     0.021 A 
HETATM   18  CAC   D T 501      -5.232   0.118   9.188  1.00 31.28     0.099 A 
HETATM   19  NAR   D T 501      -5.441  -1.135   9.561  1.00 29.97    -0.244 NA
HETATM   20  CBA   D T 501      -4.504  -1.813  10.224  1.00 29.39     0.081 A 
HETATM   21  CAI   D T 501      -4.734  -3.144  10.616  1.00 24.64     0.019 A 
HETATM   22  CBB   D T 501      -3.261  -1.178  10.570  1.00 25.45     0.018 A 
HETATM   23  CAA   D T 501      -3.781  -3.826  11.323  1.00 25.05     0.002 A 
HETATM   24  CAB   D T 501      -2.587  -3.236  11.659  1.00 24.88     0.000 A 
HETATM   25  CAJ   D T 501      -2.323  -1.920  11.301  1.00 27.86     0.002 A 
ENDBRANCH  13  16
BRANCH  12  26
HETATM   26  NBD   D T 501       7.561   1.666   8.110  1.00 33.43    -0.344 N 
HETATM   27  CAP   D T 501       8.179   0.649   7.256  1.00 26.51     0.140 C 
HETATM   28  CAN   D T 501       8.668  -0.490   8.211  1.00 28.69     0.314 C 
HETATM   29  NAU   D T 501       9.461   0.026   9.273  1.00 26.40     0.343 N 
HETATM   30  CAO   D T 501       8.790   1.008  10.085  1.00 27.47     0.314 C 
HETATM   31  CAQ   D T 501       8.355   2.190   9.200  1.00 29.57     0.140 C 
ENDBRANCH  12  26
TORSDOF 2
ENDMDL
