MODEL 1
REMARK VINA RESULT:    -6.402      0.000      0.000
REMARK INTER + INTRA:          -7.576
REMARK INTER:                  -7.150
REMARK INTRA:                  -0.425
REMARK UNBOUND:                -0.425
REMARK  2 active torsions:
REMARK  status: ('A' for Active; 'I' for Inactive)
REMARK    1  A    between atoms: C5_4  and  O7_13 
REMARK    2  A    between atoms: C8_10  and  O7_13 
ROOT
HETATM    1  O7    D T 705     -11.841   1.421  -8.136  1.00 22.05    -0.304 OA
ENDROOT
BRANCH   1   2
HETATM    2  C5    D T 705     -12.557   0.319  -7.810  1.00 22.37     0.125 A 
HETATM    3  C6    D T 705     -12.507  -0.804  -8.762  1.00 22.42     0.154 A 
HETATM    4  C1    D T 705     -13.236  -1.949  -8.460  1.00 22.18     0.041 A 
HETATM    5  O17   D T 705     -11.766  -0.669  -9.865  1.00 21.45    -0.188 OA
HETATM    6  C2    D T 705     -13.981  -2.009  -7.296  1.00 22.53     0.060 A 
HETATM    7  C3    D T 705     -14.029  -0.938  -6.396  1.00 22.56     0.014 A 
HETATM    8 CL14   D T 705     -14.896  -3.500  -6.945  1.00 21.73    -0.082 Cl
HETATM    9  C4    D T 705     -13.317   0.229  -6.655  1.00 22.81     0.028 A 
ENDBRANCH   1   2
BRANCH   1  10
HETATM   10  C8    D T 705     -10.663   1.660  -7.514  1.00 21.94     0.111 A 
HETATM   11  C9    D T 705     -10.668   2.669  -6.447  1.00 22.85     0.081 A 
HETATM   12  C10   D T 705      -9.496   2.961  -5.770  1.00 22.60     0.025 A 
HETATM   13 CL16   D T 705     -12.208   3.475  -6.071  1.00 21.30    -0.080 Cl
HETATM   14  C11   D T 705      -8.345   2.290  -6.131  1.00 22.34     0.059 A 
HETATM   15  C12   D T 705      -8.332   1.326  -7.140  1.00 22.46     0.013 A 
HETATM   16 CL15   D T 705      -6.832   2.659  -5.287  1.00 24.32    -0.082 Cl
HETATM   17  C13   D T 705      -9.484   1.009  -7.840  1.00 21.87     0.026 A 
ENDBRANCH   1  10
TORSDOF 2
ENDMDL
MODEL 2
REMARK VINA RESULT:    -6.333      4.248      5.871
REMARK INTER + INTRA:          -7.499
REMARK INTER:                  -6.961
REMARK INTRA:                  -0.538
REMARK UNBOUND:                -0.425
REMARK  2 active torsions:
REMARK  status: ('A' for Active; 'I' for Inactive)
REMARK    1  A    between atoms: C5_4  and  O7_13 
REMARK    2  A    between atoms: C8_10  and  O7_13 
ROOT
HETATM    1  O7    D T 705     -13.066   4.191  -5.151  1.00 22.05    -0.304 OA
ENDROOT
BRANCH   1   2
HETATM    2  C5    D T 705     -13.567   4.032  -3.903  1.00 22.37     0.125 A 
HETATM    3  C6    D T 705     -13.815   5.262  -3.133  1.00 22.42     0.154 A 
HETATM    4  C1    D T 705     -14.324   5.134  -1.845  1.00 22.18     0.041 A 
HETATM    5  O17   D T 705     -13.541   6.437  -3.705  1.00 21.45    -0.188 OA
HETATM    6  C2    D T 705     -14.579   3.878  -1.322  1.00 22.53     0.060 A 
HETATM    7  C3    D T 705     -14.338   2.711  -2.057  1.00 22.56     0.014 A 
HETATM    8 CL14   D T 705     -15.238   3.761   0.331  1.00 21.73    -0.082 Cl
HETATM    9  C4    D T 705     -13.829   2.789  -3.350  1.00 22.81     0.028 A 
ENDBRANCH   1   2
BRANCH   1  10
HETATM   10  C8    D T 705     -11.793   3.813  -5.413  1.00 21.94     0.111 A 
HETATM   11  C9    D T 705     -11.603   2.797  -6.456  1.00 22.85     0.081 A 
HETATM   12  C10   D T 705     -10.326   2.365  -6.773  1.00 22.60     0.025 A 
HETATM   13 CL16   D T 705     -13.049   2.165  -7.275  1.00 21.30    -0.080 Cl
HETATM   14  C11   D T 705      -9.260   2.907  -6.083  1.00 22.34     0.059 A 
HETATM   15  C12   D T 705      -9.431   3.876  -5.094  1.00 22.46     0.013 A 
HETATM   16 CL15   D T 705      -7.619   2.359  -6.463  1.00 24.32    -0.082 Cl
HETATM   17  C13   D T 705     -10.693   4.331  -4.748  1.00 21.87     0.026 A 
ENDBRANCH   1  10
TORSDOF 2
ENDMDL
MODEL 3
REMARK VINA RESULT:    -6.302      1.555      6.092
REMARK INTER + INTRA:          -7.464
REMARK INTER:                  -7.107
REMARK INTRA:                  -0.357
REMARK UNBOUND:                -0.425
REMARK  2 active torsions:
REMARK  status: ('A' for Active; 'I' for Inactive)
REMARK    1  A    between atoms: C5_4  and  O7_13 
REMARK    2  A    between atoms: C8_10  and  O7_13 
ROOT
HETATM    1  O7    D T 705     -12.281   1.327  -8.015  1.00 22.05    -0.304 OA
ENDROOT
BRANCH   1   2
HETATM    2  C5    D T 705     -11.045   1.580  -7.522  1.00 22.37     0.125 A 
HETATM    3  C6    D T 705     -10.940   2.670  -6.537  1.00 22.42     0.154 A 
HETATM    4  C1    D T 705      -9.684   2.959  -6.016  1.00 22.18     0.041 A 
HETATM    5  O17   D T 705     -12.052   3.326  -6.194  1.00 21.45    -0.188 OA
HETATM    6  C2    D T 705      -8.579   2.233  -6.425  1.00 22.53     0.060 A 
HETATM    7  C3    D T 705      -8.683   1.200  -7.365  1.00 22.56     0.014 A 
HETATM    8 CL14   D T 705      -6.988   2.634  -5.726  1.00 21.73    -0.082 Cl
HETATM    9  C4    D T 705      -9.919   0.874  -7.915  1.00 22.81     0.028 A 
ENDBRANCH   1   2
BRANCH   1  10
HETATM   10  C8    D T 705     -13.013   0.315  -7.494  1.00 21.94     0.111 A 
HETATM   11  C9    D T 705     -13.092  -0.922  -8.281  1.00 22.85     0.081 A 
HETATM   12  C10   D T 705     -13.825  -1.996  -7.805  1.00 22.60     0.025 A 
HETATM   13 CL16   D T 705     -12.222  -0.978  -9.830  1.00 21.30    -0.080 Cl
HETATM   14  C11   D T 705     -14.472  -1.863  -6.593  1.00 22.34     0.059 A 
HETATM   15  C12   D T 705     -14.399  -0.693  -5.836  1.00 22.46     0.013 A 
HETATM   16 CL15   D T 705     -15.427  -3.220  -5.973  1.00 24.32    -0.082 Cl
HETATM   17  C13   D T 705     -13.678   0.402  -6.281  1.00 21.87     0.026 A 
ENDBRANCH   1  10
TORSDOF 2
ENDMDL
MODEL 4
REMARK VINA RESULT:    -6.267      1.563      2.118
REMARK INTER + INTRA:          -7.425
REMARK INTER:                  -7.266
REMARK INTRA:                  -0.158
REMARK UNBOUND:                -0.425
REMARK  2 active torsions:
REMARK  status: ('A' for Active; 'I' for Inactive)
REMARK    1  A    between atoms: C5_4  and  O7_13 
REMARK    2  A    between atoms: C8_10  and  O7_13 
ROOT
HETATM    1  O7    D T 705     -12.286   1.596  -7.898  1.00 22.05    -0.304 OA
ENDROOT
BRANCH   1   2
HETATM    2  C5    D T 705     -12.918   0.475  -7.477  1.00 22.37     0.125 A 
HETATM    3  C6    D T 705     -12.803  -0.710  -8.343  1.00 22.42     0.154 A 
HETATM    4  C1    D T 705     -13.445  -1.876  -7.942  1.00 22.18     0.041 A 
HETATM    5  O17   D T 705     -12.090  -0.608  -9.468  1.00 21.45    -0.188 OA
HETATM    6  C2    D T 705     -14.168  -1.900  -6.762  1.00 22.53     0.060 A 
HETATM    7  C3    D T 705     -14.278  -0.769  -5.944  1.00 22.56     0.014 A 
HETATM    8 CL14   D T 705     -14.970  -3.419  -6.284  1.00 21.73    -0.082 Cl
HETATM    9  C4    D T 705     -13.653   0.421  -6.303  1.00 22.81     0.028 A 
ENDBRANCH   1   2
BRANCH   1  10
HETATM   10  C8    D T 705     -11.615   2.360  -7.004  1.00 21.94     0.111 A 
HETATM   11  C9    D T 705     -10.151   2.256  -7.010  1.00 22.85     0.081 A 
HETATM   12  C10   D T 705      -9.403   3.010  -6.121  1.00 22.60     0.025 A 
HETATM   13 CL16   D T 705      -9.400   1.150  -8.183  1.00 21.30    -0.080 Cl
HETATM   14  C11   D T 705     -10.070   3.840  -5.243  1.00 22.34     0.059 A 
HETATM   15  C12   D T 705     -11.460   3.949  -5.233  1.00 22.46     0.013 A 
HETATM   16 CL15   D T 705      -9.133   4.803  -4.088  1.00 24.32    -0.082 Cl
HETATM   17  C13   D T 705     -12.241   3.209  -6.105  1.00 21.87     0.026 A 
ENDBRANCH   1  10
TORSDOF 2
ENDMDL
MODEL 5
REMARK VINA RESULT:    -6.223     10.729     12.584
REMARK INTER + INTRA:          -7.375
REMARK INTER:                  -6.841
REMARK INTRA:                  -0.534
REMARK UNBOUND:                -0.425
REMARK  2 active torsions:
REMARK  status: ('A' for Active; 'I' for Inactive)
REMARK    1  A    between atoms: C5_4  and  O7_13 
REMARK    2  A    between atoms: C8_10  and  O7_13 
ROOT
HETATM    1  O7    D T 705      -3.221  -2.418 -12.531  1.00 22.05    -0.304 OA
ENDROOT
BRANCH   1   2
HETATM    2  C5    D T 705      -2.239  -2.829 -11.693  1.00 22.37     0.125 A 
HETATM    3  C6    D T 705      -1.151  -1.871 -11.434  1.00 22.42     0.154 A 
HETATM    4  C1    D T 705      -0.124  -2.264 -10.583  1.00 22.18     0.041 A 
HETATM    5  O17   D T 705      -1.203  -0.675 -12.028  1.00 21.45    -0.188 OA
HETATM    6  C2    D T 705      -0.143  -3.523 -10.009  1.00 22.53     0.060 A 
HETATM    7  C3    D T 705      -1.178  -4.432 -10.261  1.00 22.56     0.014 A 
HETATM    8 CL14   D T 705       1.191  -3.982  -8.918  1.00 21.73    -0.082 Cl
HETATM    9  C4    D T 705      -2.228  -4.084 -11.106  1.00 22.81     0.028 A 
ENDBRANCH   1   2
BRANCH   1  10
HETATM   10  C8    D T 705      -3.296  -2.938 -13.778  1.00 21.94     0.111 A 
HETATM   11  C9    D T 705      -4.438  -3.815 -14.064  1.00 22.85     0.081 A 
HETATM   12  C10   D T 705      -4.574  -4.381 -15.321  1.00 22.60     0.025 A 
HETATM   13 CL16   D T 705      -5.610  -4.108 -12.759  1.00 21.30    -0.080 Cl
HETATM   14  C11   D T 705      -3.615  -4.103 -16.273  1.00 22.34     0.059 A 
HETATM   15  C12   D T 705      -2.529  -3.267 -16.011  1.00 22.46     0.013 A 
HETATM   16 CL15   D T 705      -3.762  -4.827 -17.883  1.00 24.32    -0.082 Cl
HETATM   17  C13   D T 705      -2.358  -2.685 -14.766  1.00 21.87     0.026 A 
ENDBRANCH   1  10
TORSDOF 2
ENDMDL
MODEL 6
REMARK VINA RESULT:    -6.181      5.029      6.402
REMARK INTER + INTRA:          -7.329
REMARK INTER:                  -6.829
REMARK INTRA:                  -0.500
REMARK UNBOUND:                -0.425
REMARK  2 active torsions:
REMARK  status: ('A' for Active; 'I' for Inactive)
REMARK    1  A    between atoms: C5_4  and  O7_13 
REMARK    2  A    between atoms: C8_10  and  O7_13 
ROOT
HETATM    1  O7    D T 705     -12.627   5.655  -3.496  1.00 22.05    -0.304 OA
ENDROOT
BRANCH   1   2
HETATM    2  C5    D T 705     -13.524   5.042  -2.687  1.00 22.37     0.125 A 
HETATM    3  C6    D T 705     -14.891   4.893  -3.213  1.00 22.42     0.154 A 
HETATM    4  C1    D T 705     -15.838   4.274  -2.405  1.00 22.18     0.041 A 
HETATM    5  O17   D T 705     -15.155   5.358  -4.437  1.00 21.45    -0.188 OA
HETATM    6  C2    D T 705     -15.485   3.821  -1.145  1.00 22.53     0.060 A 
HETATM    7  C3    D T 705     -14.184   3.969  -0.648  1.00 22.56     0.014 A 
HETATM    8 CL14   D T 705     -16.729   3.027  -0.145  1.00 21.73    -0.082 Cl
HETATM    9  C4    D T 705     -13.202   4.582  -1.420  1.00 22.81     0.028 A 
ENDBRANCH   1   2
BRANCH   1  10
HETATM   10  C8    D T 705     -11.679   4.918  -4.120  1.00 21.94     0.111 A 
HETATM   11  C9    D T 705     -10.279   5.257  -3.834  1.00 22.85     0.081 A 
HETATM   12  C10   D T 705      -9.259   4.543  -4.439  1.00 22.60     0.025 A 
HETATM   13 CL16   D T 705      -9.961   6.591  -2.701  1.00 21.30    -0.080 Cl
HETATM   14  C11   D T 705      -9.598   3.525  -5.308  1.00 22.34     0.059 A 
HETATM   15  C12   D T 705     -10.924   3.192  -5.582  1.00 22.46     0.013 A 
HETATM   16 CL15   D T 705      -8.308   2.607  -6.104  1.00 24.32    -0.082 Cl
HETATM   17  C13   D T 705     -11.971   3.886  -4.998  1.00 21.87     0.026 A 
ENDBRANCH   1  10
TORSDOF 2
ENDMDL
MODEL 7
REMARK VINA RESULT:    -6.155      1.954      6.048
REMARK INTER + INTRA:          -7.299
REMARK INTER:                  -7.178
REMARK INTRA:                  -0.121
REMARK UNBOUND:                -0.425
REMARK  2 active torsions:
REMARK  status: ('A' for Active; 'I' for Inactive)
REMARK    1  A    between atoms: C5_4  and  O7_13 
REMARK    2  A    between atoms: C8_10  and  O7_13 
ROOT
HETATM    1  O7    D T 705     -12.522   1.873  -7.581  1.00 22.05    -0.304 OA
ENDROOT
BRANCH   1   2
HETATM    2  C5    D T 705     -11.837   2.655  -6.713  1.00 22.37     0.125 A 
HETATM    3  C6    D T 705     -10.368   2.579  -6.776  1.00 22.42     0.154 A 
HETATM    4  C1    D T 705      -9.635   3.365  -5.893  1.00 22.18     0.041 A 
HETATM    5  O17   D T 705      -9.812   1.762  -7.674  1.00 21.45    -0.188 OA
HETATM    6  C2    D T 705     -10.288   4.185  -4.989  1.00 22.53     0.060 A 
HETATM    7  C3    D T 705     -11.685   4.251  -4.930  1.00 22.56     0.014 A 
HETATM    8 CL14   D T 705      -9.309   5.181  -3.881  1.00 21.73    -0.082 Cl
HETATM    9  C4    D T 705     -12.461   3.483  -5.793  1.00 22.81     0.028 A 
ENDBRANCH   1   2
BRANCH   1  10
HETATM   10  C8    D T 705     -13.142   0.758  -7.130  1.00 21.94     0.111 A 
HETATM   11  C9    D T 705     -12.916  -0.480  -7.885  1.00 22.85     0.081 A 
HETATM   12  C10   D T 705     -13.521  -1.657  -7.477  1.00 22.60     0.025 A 
HETATM   13 CL16   D T 705     -11.854  -0.403  -9.310  1.00 21.30    -0.080 Cl
HETATM   14  C11   D T 705     -14.334  -1.624  -6.362  1.00 22.34     0.059 A 
HETATM   15  C12   D T 705     -14.550  -0.453  -5.635  1.00 22.46     0.013 A 
HETATM   16 CL15   D T 705     -15.129  -3.115  -5.831  1.00 24.32    -0.082 Cl
HETATM   17  C13   D T 705     -13.964   0.743  -6.014  1.00 21.87     0.026 A 
ENDBRANCH   1  10
TORSDOF 2
ENDMDL
MODEL 8
REMARK VINA RESULT:    -6.079     10.968     11.813
REMARK INTER + INTRA:          -7.214
REMARK INTER:                  -6.681
REMARK INTRA:                  -0.533
REMARK UNBOUND:                -0.425
REMARK  2 active torsions:
REMARK  status: ('A' for Active; 'I' for Inactive)
REMARK    1  A    between atoms: C5_4  and  O7_13 
REMARK    2  A    between atoms: C8_10  and  O7_13 
ROOT
HETATM    1  O7    D T 705      -3.069  -2.333 -12.534  1.00 22.05    -0.304 OA
ENDROOT
BRANCH   1   2
HETATM    2  C5    D T 705      -3.262  -2.941 -13.728  1.00 22.37     0.125 A 
HETATM    3  C6    D T 705      -4.493  -3.736 -13.872  1.00 22.42     0.154 A 
HETATM    4  C1    D T 705      -4.718  -4.378 -15.084  1.00 22.18     0.041 A 
HETATM    5  O17   D T 705      -5.331  -3.802 -12.834  1.00 21.45    -0.188 OA
HETATM    6  C2    D T 705      -3.798  -4.262 -16.112  1.00 22.53     0.060 A 
HETATM    7  C3    D T 705      -2.627  -3.508 -15.970  1.00 22.56     0.014 A 
HETATM    8 CL14   D T 705      -4.130  -5.096 -17.652  1.00 21.73    -0.082 Cl
HETATM    9  C4    D T 705      -2.358  -2.847 -14.774  1.00 22.81     0.028 A 
ENDBRANCH   1   2
BRANCH   1  10
HETATM   10  C8    D T 705      -2.126  -2.808 -11.687  1.00 21.94     0.111 A 
HETATM   11  C9    D T 705      -0.923  -1.986 -11.505  1.00 22.85     0.081 A 
HETATM   12  C10   D T 705       0.081  -2.414 -10.653  1.00 22.60     0.025 A 
HETATM   13 CL16   D T 705      -0.819  -0.454 -12.401  1.00 21.30    -0.080 Cl
HETATM   14  C11   D T 705      -0.082  -3.619 -10.000  1.00 22.34     0.059 A 
HETATM   15  C12   D T 705      -1.223  -4.405 -10.164  1.00 22.46     0.013 A 
HETATM   16 CL15   D T 705       1.197  -4.192  -8.916  1.00 24.32    -0.082 Cl
HETATM   17  C13   D T 705      -2.247  -4.011 -11.009  1.00 21.87     0.026 A 
ENDBRANCH   1  10
TORSDOF 2
ENDMDL
MODEL 9
REMARK VINA RESULT:    -5.850     12.391     14.350
REMARK INTER + INTRA:          -6.959
REMARK INTER:                  -6.467
REMARK INTRA:                  -0.492
REMARK UNBOUND:                -0.425
REMARK  2 active torsions:
REMARK  status: ('A' for Active; 'I' for Inactive)
REMARK    1  A    between atoms: C5_4  and  O7_13 
REMARK    2  A    between atoms: C8_10  and  O7_13 
ROOT
HETATM    1  O7    D T 705      -1.398  -2.213 -15.443  1.00 22.05    -0.304 OA
ENDROOT
BRANCH   1   2
HETATM    2  C5    D T 705      -0.624  -2.974 -16.254  1.00 22.37     0.125 A 
HETATM    3  C6    D T 705      -1.203  -3.344 -17.557  1.00 22.42     0.154 A 
HETATM    4  C1    D T 705      -0.436  -4.130 -18.411  1.00 22.18     0.041 A 
HETATM    5  O17   D T 705      -2.430  -2.910 -17.854  1.00 21.45    -0.188 OA
HETATM    6  C2    D T 705       0.828  -4.542 -18.027  1.00 22.53     0.060 A 
HETATM    7  C3    D T 705       1.372  -4.190 -16.786  1.00 22.56     0.014 A 
HETATM    8 CL14   D T 705       1.778  -5.542 -19.157  1.00 21.73    -0.082 Cl
HETATM    9  C4    D T 705       0.643  -3.405 -15.897  1.00 22.81     0.028 A 
ENDBRANCH   1   2
BRANCH   1  10
HETATM   10  C8    D T 705      -1.584  -2.586 -14.156  1.00 21.94     0.111 A 
HETATM   11  C9    D T 705      -0.899  -1.792 -13.128  1.00 22.85     0.081 A 
HETATM   12  C10   D T 705      -1.047  -2.120 -11.791  1.00 22.60     0.025 A 
HETATM   13 CL16   D T 705       0.099  -0.422 -13.665  1.00 21.30    -0.080 Cl
HETATM   14  C11   D T 705      -1.838  -3.203 -11.465  1.00 22.34     0.059 A 
HETATM   15  C12   D T 705      -2.496  -3.961 -12.434  1.00 22.46     0.013 A 
HETATM   16 CL15   D T 705      -2.029  -3.649  -9.761  1.00 24.32    -0.082 Cl
HETATM   17  C13   D T 705      -2.370  -3.664 -13.781  1.00 21.87     0.026 A 
ENDBRANCH   1  10
TORSDOF 2
ENDMDL
