MODEL 1
REMARK VINA RESULT:      -9.7      0.000      0.000
REMARK  5 active torsions:
REMARK  status: ('A' for Active; 'I' for Inactive)
REMARK    1  A    between atoms: C17_7  and  C21_10 
REMARK    2  A    between atoms: C21_10  and  O27_12 
REMARK    3  A    between atoms: O27_12  and  C15_13 
REMARK    4  A    between atoms: C14_19  and  C16_20 
REMARK    5  A    between atoms: N26_23  and  C20_25 
ROOT
HETATM    1  C15   D T9000     -21.060   2.753  12.040  1.00 32.23     0.125 A 
HETATM    2  C4    D T9000     -21.588   4.074  12.280  1.00 32.87     0.029 A 
HETATM    3  C19   D T9000     -19.733   2.696  11.494  1.00 30.98     0.173 A 
HETATM    4  N22   D T9000     -19.152   1.439  11.240  1.00 26.96    -0.078 NA
HETATM    5  N23   D T9000     -18.979   3.787  11.204  1.00 30.39    -0.228 NA
HETATM    6  C5    D T9000     -19.506   5.023  11.441  1.00 33.14     0.100 A 
HETATM    7  C14   D T9000     -20.814   5.241  11.979  1.00 34.48     0.024 A 
ENDROOT
BRANCH   1   8
HETATM    8  O27   D T9000     -21.726   1.548  12.313  1.00 33.85    -0.326 OA
BRANCH   8   9
HETATM    9  C21   D T9000     -23.057   1.411  12.920  1.00 39.13     0.145 C 
HETATM   10  C1    D T9000     -22.835   0.708  14.272  1.00 37.31     0.038 C 
BRANCH   9  11
HETATM   11  C17   D T9000     -24.095   0.638  12.032  1.00 43.03     0.029 A 
HETATM   12  C13   D T9000     -24.867   1.367  11.028  1.00 43.22     0.057 A 
HETATM   13 CL     D T9000     -24.701   3.079  10.745  1.00 44.26    -0.083 Cl
HETATM   14  C3    D T9000     -25.815   0.677  10.216  1.00 43.32     0.013 A 
HETATM   15  C2    D T9000     -26.028  -0.717  10.364  1.00 42.25     0.031 A 
HETATM   16  C12   D T9000     -25.300  -1.466  11.328  1.00 45.15     0.150 A 
HETATM   17  F     D T9000     -25.539  -2.785  11.430  1.00 42.99    -0.203 F 
HETATM   18  C18   D T9000     -24.329  -0.810  12.172  1.00 44.96     0.084 A 
HETATM   19 CL2    D T9000     -23.473  -1.813  13.335  1.00 59.14    -0.080 Cl
ENDBRANCH   9  11
ENDBRANCH   8   9
ENDBRANCH   1   8
BRANCH   7  20
HETATM   20  C16   D T9000     -21.372   6.637  12.232  1.00 36.37     0.041 A 
HETATM   21  C6    D T9000     -20.882   7.635  13.184  1.00 37.83     0.122 A 
HETATM   22  N24   D T9000     -21.618   8.689  13.104  1.00 39.52    -0.168 NA
HETATM   23  N26   D T9000     -22.535   8.517  12.217  1.00 39.89    -0.252 N 
HETATM   24  C7    D T9000     -22.461   7.247  11.609  1.00 38.44     0.097 A 
BRANCH  23  25
HETATM   25  C20   D T9000     -23.532   9.577  11.909  1.00 45.76     0.110 C 
HETATM   26  C8    D T9000     -24.328   9.957  13.177  1.00 48.47     0.063 C 
HETATM   27  C10   D T9000     -25.355  11.062  12.831  1.00 51.46     0.292 C 
HETATM   28  N25   D T9000     -26.256  10.665  11.710  1.00 52.65     0.339 N 
HETATM   29  C11   D T9000     -25.510  10.253  10.486  1.00 50.34     0.292 C 
HETATM   30  C9    D T9000     -24.491   9.126  10.777  1.00 49.34     0.063 C 
ENDBRANCH  23  25
ENDBRANCH   7  20
TORSDOF 5
ENDMDL
MODEL 2
REMARK VINA RESULT:      -9.5      1.419      2.179
REMARK  5 active torsions:
REMARK  status: ('A' for Active; 'I' for Inactive)
REMARK    1  A    between atoms: C17_7  and  C21_10 
REMARK    2  A    between atoms: C21_10  and  O27_12 
REMARK    3  A    between atoms: O27_12  and  C15_13 
REMARK    4  A    between atoms: C14_19  and  C16_20 
REMARK    5  A    between atoms: N26_23  and  C20_25 
ROOT
HETATM    1  C15   D T9000     -20.711   2.940  12.910  1.00 32.23     0.125 A 
HETATM    2  C4    D T9000     -21.333   4.242  12.919  1.00 32.87     0.029 A 
HETATM    3  C19   D T9000     -19.302   2.919  12.630  1.00 30.98     0.173 A 
HETATM    4  N22   D T9000     -18.627   1.683  12.612  1.00 26.96    -0.078 NA
HETATM    5  N23   D T9000     -18.556   4.026  12.383  1.00 30.39    -0.228 NA
HETATM    6  C5    D T9000     -19.173   5.242  12.396  1.00 33.14     0.100 A 
HETATM    7  C14   D T9000     -20.568   5.424  12.656  1.00 34.48     0.024 A 
ENDROOT
BRANCH   1   8
HETATM    8  O27   D T9000     -21.363   1.724  13.169  1.00 33.85    -0.326 OA
BRANCH   8   9
HETATM    9  C21   D T9000     -22.812   1.531  13.311  1.00 39.13     0.145 C 
HETATM   10  C1    D T9000     -22.990   0.432  14.375  1.00 37.31     0.038 C 
BRANCH   9  11
HETATM   11  C17   D T9000     -23.547   1.162  11.974  1.00 43.03     0.029 A 
HETATM   12  C13   D T9000     -23.428  -0.192  11.438  1.00 43.22     0.057 A 
HETATM   13 CL     D T9000     -22.505  -1.453  12.209  1.00 44.26    -0.083 Cl
HETATM   14  C3    D T9000     -24.089  -0.539  10.222  1.00 43.32     0.013 A 
HETATM   15  C2    D T9000     -24.867   0.412   9.514  1.00 42.25     0.031 A 
HETATM   16  C12   D T9000     -25.009   1.741   9.998  1.00 45.15     0.150 A 
HETATM   17  F     D T9000     -25.757   2.605   9.290  1.00 42.99    -0.203 F 
HETATM   18  C18   D T9000     -24.360   2.138  11.225  1.00 44.96     0.084 A 
HETATM   19 CL2    D T9000     -24.592   3.800  11.752  1.00 59.14    -0.080 Cl
ENDBRANCH   9  11
ENDBRANCH   8   9
ENDBRANCH   1   8
BRANCH   7  20
HETATM   20  C16   D T9000     -21.225   6.799  12.664  1.00 36.37     0.041 A 
HETATM   21  C6    D T9000     -20.846   7.966  13.464  1.00 37.83     0.122 A 
HETATM   22  N24   D T9000     -21.644   8.940  13.191  1.00 39.52    -0.168 NA
HETATM   23  N26   D T9000     -22.505   8.568  12.309  1.00 39.89    -0.252 N 
HETATM   24  C7    D T9000     -22.321   7.227  11.914  1.00 38.44     0.097 A 
BRANCH  23  25
HETATM   25  C20   D T9000     -23.551   9.493  11.801  1.00 45.76     0.110 C 
HETATM   26  C8    D T9000     -24.452   9.980  12.958  1.00 48.47     0.063 C 
HETATM   27  C10   D T9000     -25.530  10.943  12.404  1.00 51.46     0.292 C 
HETATM   28  N25   D T9000     -26.327  10.326  11.302  1.00 52.65     0.339 N 
HETATM   29  C11   D T9000     -25.476   9.811  10.192  1.00 50.34     0.292 C 
HETATM   30  C9    D T9000     -24.401   8.818  10.694  1.00 49.34     0.063 C 
ENDBRANCH  23  25
ENDBRANCH   7  20
TORSDOF 5
ENDMDL
MODEL 3
REMARK VINA RESULT:      -9.3      1.217      2.121
REMARK  5 active torsions:
REMARK  status: ('A' for Active; 'I' for Inactive)
REMARK    1  A    between atoms: C17_7  and  C21_10 
REMARK    2  A    between atoms: C21_10  and  O27_12 
REMARK    3  A    between atoms: O27_12  and  C15_13 
REMARK    4  A    between atoms: C14_19  and  C16_20 
REMARK    5  A    between atoms: N26_23  and  C20_25 
ROOT
HETATM    1  C15   D T9000     -21.065   1.751  12.246  1.00 32.23     0.125 A 
HETATM    2  C4    D T9000     -21.524   3.116  12.326  1.00 32.87     0.029 A 
HETATM    3  C19   D T9000     -19.680   1.571  11.910  1.00 30.98     0.173 A 
HETATM    4  N22   D T9000     -19.162   0.265  11.820  1.00 26.96    -0.078 NA
HETATM    5  N23   D T9000     -18.814   2.590  11.672  1.00 30.39    -0.228 NA
HETATM    6  C5    D T9000     -19.278   3.870  11.754  1.00 33.14     0.100 A 
HETATM    7  C14   D T9000     -20.630   4.208  12.076  1.00 34.48     0.024 A 
ENDROOT
BRANCH   1   8
HETATM    8  O27   D T9000     -21.851   0.612  12.487  1.00 33.85    -0.326 OA
BRANCH   8   9
HETATM    9  C21   D T9000     -23.239   0.604  12.967  1.00 39.13     0.145 C 
HETATM   10  C1    D T9000     -23.206  -0.086  14.344  1.00 37.31     0.038 C 
BRANCH   9  11
HETATM   11  C17   D T9000     -24.253  -0.099  11.996  1.00 43.03     0.029 A 
HETATM   12  C13   D T9000     -24.347  -1.557  11.986  1.00 43.22     0.057 A 
HETATM   13 CL     D T9000     -23.387  -2.589  13.012  1.00 44.26    -0.083 Cl
HETATM   14  C3    D T9000     -25.262  -2.207  11.106  1.00 43.32     0.013 A 
HETATM   15  C2    D T9000     -26.091  -1.462  10.231  1.00 42.25     0.031 A 
HETATM   16  C12   D T9000     -26.032  -0.042  10.205  1.00 45.15     0.150 A 
HETATM   17  F     D T9000     -26.838   0.619   9.356  1.00 42.99    -0.203 F 
HETATM   18  C18   D T9000     -25.122   0.660  11.078  1.00 44.96     0.084 A 
HETATM   19 CL2    D T9000     -25.116   2.417  10.984  1.00 59.14    -0.080 Cl
ENDBRANCH   9  11
ENDBRANCH   8   9
ENDBRANCH   1   8
BRANCH   7  20
HETATM   20  C16   D T9000     -21.115   5.650  12.159  1.00 36.37     0.041 A 
HETATM   21  C6    D T9000     -20.438   6.785  12.790  1.00 37.83     0.122 A 
HETATM   22  N24   D T9000     -21.166   7.839  12.652  1.00 39.52    -0.168 NA
HETATM   23  N26   D T9000     -22.242   7.548  12.008  1.00 39.89    -0.252 N 
HETATM   24  C7    D T9000     -22.301   6.184  11.653  1.00 38.44     0.097 A 
BRANCH  23  25
HETATM   25  C20   D T9000     -23.270   8.576  11.701  1.00 45.76     0.110 C 
HETATM   26  C8    D T9000     -24.007   9.008  12.988  1.00 48.47     0.063 C 
HETATM   27  C10   D T9000     -25.068  10.080  12.642  1.00 51.46     0.292 C 
HETATM   28  N25   D T9000     -26.019   9.614  11.589  1.00 52.65     0.339 N 
HETATM   29  C11   D T9000     -25.329   9.153  10.351  1.00 50.34     0.292 C 
HETATM   30  C9    D T9000     -24.278   8.056  10.643  1.00 49.34     0.063 C 
ENDBRANCH  23  25
ENDBRANCH   7  20
TORSDOF 5
ENDMDL
MODEL 4
REMARK VINA RESULT:      -9.3      3.942      9.429
REMARK  5 active torsions:
REMARK  status: ('A' for Active; 'I' for Inactive)
REMARK    1  A    between atoms: C17_7  and  C21_10 
REMARK    2  A    between atoms: C21_10  and  O27_12 
REMARK    3  A    between atoms: O27_12  and  C15_13 
REMARK    4  A    between atoms: C14_19  and  C16_20 
REMARK    5  A    between atoms: N26_23  and  C20_25 
ROOT
HETATM    1  C15   D T9000     -21.330   3.145  12.100  1.00 32.23     0.125 A 
HETATM    2  C4    D T9000     -22.275   2.068  11.930  1.00 32.87     0.029 A 
HETATM    3  C19   D T9000     -20.018   2.766  12.546  1.00 30.98     0.173 A 
HETATM    4  N22   D T9000     -19.043   3.765  12.727  1.00 26.96    -0.078 NA
HETATM    5  N23   D T9000     -19.640   1.488  12.806  1.00 30.39    -0.228 NA
HETATM    6  C5    D T9000     -20.556   0.492  12.637  1.00 33.14     0.100 A 
HETATM    7  C14   D T9000     -21.900   0.712  12.202  1.00 34.48     0.024 A 
ENDROOT
BRANCH   1   8
HETATM    8  O27   D T9000     -21.588   4.501  11.847  1.00 33.85    -0.326 OA
BRANCH   8   9
HETATM    9  C21   D T9000     -22.033   5.496  12.832  1.00 39.13     0.145 C 
HETATM   10  C1    D T9000     -23.037   4.767  13.746  1.00 37.31     0.038 C 
BRANCH   9  11
HETATM   11  C17   D T9000     -22.661   6.790  12.203  1.00 43.03     0.029 A 
HETATM   12  C13   D T9000     -22.123   8.099  12.564  1.00 43.22     0.057 A 
HETATM   13 CL     D T9000     -20.794   8.321  13.670  1.00 44.26    -0.083 Cl
HETATM   14  C3    D T9000     -22.687   9.283  12.002  1.00 43.32     0.013 A 
HETATM   15  C2    D T9000     -23.771   9.216  11.090  1.00 42.25     0.031 A 
HETATM   16  C12   D T9000     -24.327   7.964  10.712  1.00 45.15     0.150 A 
HETATM   17  F     D T9000     -25.354   7.953   9.845  1.00 42.99    -0.203 F 
HETATM   18  C18   D T9000     -23.789   6.739  11.254  1.00 44.96     0.084 A 
HETATM   19 CL2    D T9000     -24.535   5.235  10.730  1.00 59.14    -0.080 Cl
ENDBRANCH   9  11
ENDBRANCH   8   9
ENDBRANCH   1   8
BRANCH   7  20
HETATM   20  C16   D T9000     -22.899  -0.426  12.024  1.00 36.37     0.041 A 
HETATM   21  C6    D T9000     -24.308  -0.326  11.638  1.00 37.83     0.122 A 
HETATM   22  N24   D T9000     -24.818  -1.508  11.597  1.00 39.52    -0.168 NA
HETATM   23  N26   D T9000     -23.924  -2.382  11.904  1.00 39.89    -0.252 N 
HETATM   24  C7    D T9000     -22.675  -1.793  12.192  1.00 38.44     0.097 A 
BRANCH  23  25
HETATM   25  C20   D T9000     -24.232  -3.836  11.934  1.00 45.76     0.110 C 
HETATM   26  C8    D T9000     -23.260  -4.576  12.879  1.00 48.47     0.063 C 
HETATM   27  C10   D T9000     -23.603  -6.086  12.895  1.00 51.46     0.292 C 
HETATM   28  N25   D T9000     -23.605  -6.680  11.526  1.00 52.65     0.339 N 
HETATM   29  C11   D T9000     -24.506  -5.956  10.583  1.00 50.34     0.292 C 
HETATM   30  C9    D T9000     -24.180  -4.446  10.510  1.00 49.34     0.063 C 
ENDBRANCH  23  25
ENDBRANCH   7  20
TORSDOF 5
ENDMDL
MODEL 5
REMARK VINA RESULT:      -9.3      4.049      9.135
REMARK  5 active torsions:
REMARK  status: ('A' for Active; 'I' for Inactive)
REMARK    1  A    between atoms: C17_7  and  C21_10 
REMARK    2  A    between atoms: C21_10  and  O27_12 
REMARK    3  A    between atoms: O27_12  and  C15_13 
REMARK    4  A    between atoms: C14_19  and  C16_20 
REMARK    5  A    between atoms: N26_23  and  C20_25 
ROOT
HETATM    1  C15   D T9000     -20.979   3.923  12.360  1.00 32.23     0.125 A 
HETATM    2  C4    D T9000     -21.762   2.712  12.395  1.00 32.87     0.029 A 
HETATM    3  C19   D T9000     -19.630   3.814  12.843  1.00 30.98     0.173 A 
HETATM    4  N22   D T9000     -18.806   4.955  12.833  1.00 26.96    -0.078 NA
HETATM    5  N23   D T9000     -19.078   2.666  13.313  1.00 30.39    -0.228 NA
HETATM    6  C5    D T9000     -19.844   1.537  13.334  1.00 33.14     0.100 A 
HETATM    7  C14   D T9000     -21.203   1.489  12.889  1.00 34.48     0.024 A 
ENDROOT
BRANCH   1   8
HETATM    8  O27   D T9000     -21.422   5.166  11.882  1.00 33.85    -0.326 OA
BRANCH   8   9
HETATM    9  C21   D T9000     -22.108   6.201  12.667  1.00 39.13     0.145 C 
HETATM   10  C1    D T9000     -22.712   5.478  13.885  1.00 37.31     0.038 C 
BRANCH   9  11
HETATM   11  C17   D T9000     -23.201   6.997  11.869  1.00 43.03     0.029 A 
HETATM   12  C13   D T9000     -24.216   6.265  11.115  1.00 43.22     0.057 A 
HETATM   13 CL     D T9000     -24.294   4.525  11.047  1.00 44.26    -0.083 Cl
HETATM   14  C3    D T9000     -25.213   6.976  10.383  1.00 43.32     0.013 A 
HETATM   15  C2    D T9000     -25.241   8.394  10.372  1.00 42.25     0.031 A 
HETATM   16  C12   D T9000     -24.273   9.146  11.091  1.00 45.15     0.150 A 
HETATM   17  F     D T9000     -24.342  10.488  11.048  1.00 42.99    -0.203 F 
HETATM   18  C18   D T9000     -23.245   8.470  11.846  1.00 44.96     0.084 A 
HETATM   19 CL2    D T9000     -22.090   9.479  12.708  1.00 59.14    -0.080 Cl
ENDBRANCH   9  11
ENDBRANCH   8   9
ENDBRANCH   1   8
BRANCH   7  20
HETATM   20  C16   D T9000     -22.030   0.209  12.927  1.00 36.37     0.041 A 
HETATM   21  C6    D T9000     -23.133  -0.115  13.834  1.00 37.83     0.122 A 
HETATM   22  N24   D T9000     -23.577  -1.291  13.553  1.00 39.52    -0.168 NA
HETATM   23  N26   D T9000     -22.909  -1.789  12.572  1.00 39.89    -0.252 N 
HETATM   24  C7    D T9000     -21.906  -0.912  12.107  1.00 38.44     0.097 A 
BRANCH  23  25
HETATM   25  C20   D T9000     -23.208  -3.141  12.030  1.00 45.76     0.110 C 
HETATM   26  C8    D T9000     -24.601  -3.161  11.364  1.00 48.47     0.063 C 
HETATM   27  C10   D T9000     -24.887  -4.576  10.806  1.00 51.46     0.292 C 
HETATM   28  N25   D T9000     -24.758  -5.633  11.852  1.00 52.65     0.339 N 
HETATM   29  C11   D T9000     -23.435  -5.607  12.540  1.00 50.34     0.292 C 
HETATM   30  C9    D T9000     -23.118  -4.218  13.142  1.00 49.34     0.063 C 
ENDBRANCH  23  25
ENDBRANCH   7  20
TORSDOF 5
ENDMDL
MODEL 6
REMARK VINA RESULT:      -9.2      3.881      8.962
REMARK  5 active torsions:
REMARK  status: ('A' for Active; 'I' for Inactive)
REMARK    1  A    between atoms: C17_7  and  C21_10 
REMARK    2  A    between atoms: C21_10  and  O27_12 
REMARK    3  A    between atoms: O27_12  and  C15_13 
REMARK    4  A    between atoms: C14_19  and  C16_20 
REMARK    5  A    between atoms: N26_23  and  C20_25 
ROOT
HETATM    1  C15   D T9000     -24.154   3.904  11.290  1.00 32.23     0.125 A 
HETATM    2  C4    D T9000     -24.246   2.464  11.316  1.00 32.87     0.029 A 
HETATM    3  C19   D T9000     -24.952   4.567  10.296  1.00 30.98     0.173 A 
HETATM    4  N22   D T9000     -24.916   5.972  10.216  1.00 26.96    -0.078 NA
HETATM    5  N23   D T9000     -25.759   3.926   9.413  1.00 30.39    -0.228 NA
HETATM    6  C5    D T9000     -25.824   2.564   9.461  1.00 33.14     0.100 A 
HETATM    7  C14   D T9000     -25.088   1.765  10.392  1.00 34.48     0.024 A 
ENDROOT
BRANCH   1   8
HETATM    8  O27   D T9000     -23.375   4.686  12.157  1.00 33.85    -0.326 OA
BRANCH   8   9
HETATM    9  C21   D T9000     -22.468   4.184  13.197  1.00 39.13     0.145 C 
HETATM   10  C1    D T9000     -22.227   5.366  14.155  1.00 37.31     0.038 C 
BRANCH   9  11
HETATM   11  C17   D T9000     -21.117   3.603  12.649  1.00 43.03     0.029 A 
HETATM   12  C13   D T9000     -20.196   4.481  11.930  1.00 43.22     0.057 A 
HETATM   13 CL     D T9000     -20.507   6.172  11.642  1.00 44.26    -0.083 Cl
HETATM   14  C3    D T9000     -18.966   3.965  11.424  1.00 43.32     0.013 A 
HETATM   15  C2    D T9000     -18.614   2.604  11.604  1.00 42.25     0.031 A 
HETATM   16  C12   D T9000     -19.480   1.714  12.295  1.00 45.15     0.150 A 
HETATM   17  F     D T9000     -19.101   0.432  12.439  1.00 42.99    -0.203 F 
HETATM   18  C18   D T9000     -20.734   2.191  12.826  1.00 44.96     0.084 A 
HETATM   19 CL2    D T9000     -21.743   1.022  13.670  1.00 59.14    -0.080 Cl
ENDBRANCH   9  11
ENDBRANCH   8   9
ENDBRANCH   1   8
BRANCH   7  20
HETATM   20  C16   D T9000     -25.185   0.244  10.419  1.00 36.37     0.041 A 
HETATM   21  C6    D T9000     -25.840  -0.627   9.441  1.00 37.83     0.122 A 
HETATM   22  N24   D T9000     -25.708  -1.853   9.814  1.00 39.52    -0.168 NA
HETATM   23  N26   D T9000     -25.046  -1.907  10.917  1.00 39.89    -0.252 N 
HETATM   24  C7    D T9000     -24.671  -0.628  11.379  1.00 38.44     0.097 A 
BRANCH  23  25
HETATM   25  C20   D T9000     -24.739  -3.201  11.581  1.00 45.76     0.110 C 
HETATM   26  C8    D T9000     -23.339  -3.157  12.231  1.00 48.47     0.063 C 
HETATM   27  C10   D T9000     -23.046  -4.514  12.918  1.00 51.46     0.292 C 
HETATM   28  N25   D T9000     -23.185  -5.665  11.978  1.00 52.65     0.339 N 
HETATM   29  C11   D T9000     -24.515  -5.704  11.305  1.00 50.34     0.292 C 
HETATM   30  C9    D T9000     -24.839  -4.379  10.577  1.00 49.34     0.063 C 
ENDBRANCH  23  25
ENDBRANCH   7  20
TORSDOF 5
ENDMDL
MODEL 7
REMARK VINA RESULT:      -9.2      4.661     10.259
REMARK  5 active torsions:
REMARK  status: ('A' for Active; 'I' for Inactive)
REMARK    1  A    between atoms: C17_7  and  C21_10 
REMARK    2  A    between atoms: C21_10  and  O27_12 
REMARK    3  A    between atoms: O27_12  and  C15_13 
REMARK    4  A    between atoms: C14_19  and  C16_20 
REMARK    5  A    between atoms: N26_23  and  C20_25 
ROOT
HETATM    1  C15   D T9000     -24.915   2.586  10.528  1.00 32.23     0.125 A 
HETATM    2  C4    D T9000     -24.421   1.395  11.175  1.00 32.87     0.029 A 
HETATM    3  C19   D T9000     -25.972   2.391   9.574  1.00 30.98     0.173 A 
HETATM    4  N22   D T9000     -26.507   3.510   8.909  1.00 26.96    -0.078 NA
HETATM    5  N23   D T9000     -26.509   1.183   9.266  1.00 30.39    -0.228 NA
HETATM    6  C5    D T9000     -26.020   0.075   9.893  1.00 33.14     0.100 A 
HETATM    7  C14   D T9000     -24.968   0.108  10.863  1.00 34.48     0.024 A 
ENDROOT
BRANCH   1   8
HETATM    8  O27   D T9000     -24.462   3.892  10.770  1.00 33.85    -0.326 OA
BRANCH   8   9
HETATM    9  C21   D T9000     -23.643   4.327  11.909  1.00 39.13     0.145 C 
HETATM   10  C1    D T9000     -24.484   4.044  13.168  1.00 37.31     0.038 C 
BRANCH   9  11
HETATM   11  C17   D T9000     -23.194   5.830  11.844  1.00 43.03     0.029 A 
HETATM   12  C13   D T9000     -21.909   6.222  12.420  1.00 43.22     0.057 A 
HETATM   13 CL     D T9000     -20.818   5.101  13.188  1.00 44.26    -0.083 Cl
HETATM   14  C3    D T9000     -21.491   7.585  12.369  1.00 43.32     0.013 A 
HETATM   15  C2    D T9000     -22.303   8.578  11.765  1.00 42.25     0.031 A 
HETATM   16  C12   D T9000     -23.560   8.242  11.194  1.00 45.15     0.150 A 
HETATM   17  F     D T9000     -24.293   9.220  10.634  1.00 42.99    -0.203 F 
HETATM   18  C18   D T9000     -24.025   6.876  11.220  1.00 44.96     0.084 A 
HETATM   19 CL2    D T9000     -25.590   6.548  10.487  1.00 59.14    -0.080 Cl
ENDBRANCH   9  11
ENDBRANCH   8   9
ENDBRANCH   1   8
BRANCH   7  20
HETATM   20  C16   D T9000     -24.445  -1.151  11.546  1.00 36.37     0.041 A 
HETATM   21  C6    D T9000     -24.014  -1.298  12.937  1.00 37.83     0.122 A 
HETATM   22  N24   D T9000     -23.638  -2.514  13.134  1.00 39.52    -0.168 NA
HETATM   23  N26   D T9000     -23.765  -3.194  12.049  1.00 39.89    -0.252 N 
HETATM   24  C7    D T9000     -24.270  -2.416  10.986  1.00 38.44     0.097 A 
BRANCH  23  25
HETATM   25  C20   D T9000     -23.407  -4.635  11.984  1.00 45.76     0.110 C 
HETATM   26  C8    D T9000     -24.566  -5.455  11.374  1.00 48.47     0.063 C 
HETATM   27  C10   D T9000     -24.167  -6.949  11.314  1.00 51.46     0.292 C 
HETATM   28  N25   D T9000     -23.756  -7.479  12.648  1.00 52.65     0.339 N 
HETATM   29  C11   D T9000     -22.666  -6.678  13.276  1.00 50.34     0.292 C 
HETATM   30  C9    D T9000     -23.032  -5.180  13.386  1.00 49.34     0.063 C 
ENDBRANCH  23  25
ENDBRANCH   7  20
TORSDOF 5
ENDMDL
MODEL 8
REMARK VINA RESULT:      -9.1      4.417      9.640
REMARK  5 active torsions:
REMARK  status: ('A' for Active; 'I' for Inactive)
REMARK    1  A    between atoms: C17_7  and  C21_10 
REMARK    2  A    between atoms: C21_10  and  O27_12 
REMARK    3  A    between atoms: O27_12  and  C15_13 
REMARK    4  A    between atoms: C14_19  and  C16_20 
REMARK    5  A    between atoms: N26_23  and  C20_25 
ROOT
HETATM    1  C15   D T9000     -24.383   3.024  11.034  1.00 32.23     0.125 A 
HETATM    2  C4    D T9000     -24.395   1.584  11.131  1.00 32.87     0.029 A 
HETATM    3  C19   D T9000     -25.247   3.595  10.038  1.00 30.98     0.173 A 
HETATM    4  N22   D T9000     -25.290   4.994   9.892  1.00 26.96    -0.078 NA
HETATM    5  N23   D T9000     -26.046   2.869   9.214  1.00 30.39    -0.228 NA
HETATM    6  C5    D T9000     -26.035   1.510   9.328  1.00 33.14     0.100 A 
HETATM    7  C14   D T9000     -25.227   0.797  10.270  1.00 34.48     0.024 A 
ENDROOT
BRANCH   1   8
HETATM    8  O27   D T9000     -23.621   3.887  11.837  1.00 33.85    -0.326 OA
BRANCH   8   9
HETATM    9  C21   D T9000     -22.840   3.505  13.021  1.00 39.13     0.145 C 
HETATM   10  C1    D T9000     -22.996   4.665  14.023  1.00 37.31     0.038 C 
BRANCH   9  11
HETATM   11  C17   D T9000     -21.329   3.200  12.726  1.00 43.03     0.029 A 
HETATM   12  C13   D T9000     -20.788   1.879  13.041  1.00 43.22     0.057 A 
HETATM   13 CL     D T9000     -21.736   0.592  13.735  1.00 44.26    -0.083 Cl
HETATM   14  C3    D T9000     -19.415   1.590  12.780  1.00 43.32     0.013 A 
HETATM   15  C2    D T9000     -18.556   2.565  12.216  1.00 42.25     0.031 A 
HETATM   16  C12   D T9000     -19.039   3.863  11.895  1.00 45.15     0.150 A 
HETATM   17  F     D T9000     -18.184   4.753  11.362  1.00 42.99    -0.203 F 
HETATM   18  C18   D T9000     -20.421   4.202  12.140  1.00 44.96     0.084 A 
HETATM   19 CL2    D T9000     -20.935   5.828  11.709  1.00 59.14    -0.080 Cl
ENDBRANCH   9  11
ENDBRANCH   8   9
ENDBRANCH   1   8
BRANCH   7  20
HETATM   20  C16   D T9000     -25.240  -0.724  10.371  1.00 36.37     0.041 A 
HETATM   21  C6    D T9000     -25.792  -1.678   9.408  1.00 37.83     0.122 A 
HETATM   22  N24   D T9000     -25.612  -2.874   9.850  1.00 39.52    -0.168 NA
HETATM   23  N26   D T9000     -25.007  -2.836  10.986  1.00 39.89    -0.252 N 
HETATM   24  C7    D T9000     -24.729  -1.516  11.400  1.00 38.44     0.097 A 
BRANCH  23  25
HETATM   25  C20   D T9000     -24.664  -4.075  11.731  1.00 45.76     0.110 C 
HETATM   26  C8    D T9000     -23.320  -3.906  12.474  1.00 48.47     0.063 C 
HETATM   27  C10   D T9000     -22.988  -5.208  13.244  1.00 51.46     0.292 C 
HETATM   28  N25   D T9000     -22.981  -6.405  12.352  1.00 52.65     0.339 N 
HETATM   29  C11   D T9000     -24.254  -6.567  11.591  1.00 50.34     0.292 C 
HETATM   30  C9    D T9000     -24.612  -5.299  10.780  1.00 49.34     0.063 C 
ENDBRANCH  23  25
ENDBRANCH   7  20
TORSDOF 5
ENDMDL
MODEL 9
REMARK VINA RESULT:      -8.9      1.658      2.092
REMARK  5 active torsions:
REMARK  status: ('A' for Active; 'I' for Inactive)
REMARK    1  A    between atoms: C17_7  and  C21_10 
REMARK    2  A    between atoms: C21_10  and  O27_12 
REMARK    3  A    between atoms: O27_12  and  C15_13 
REMARK    4  A    between atoms: C14_19  and  C16_20 
REMARK    5  A    between atoms: N26_23  and  C20_25 
ROOT
HETATM    1  C15   D T9000     -22.115   1.737  12.207  1.00 32.23     0.125 A 
HETATM    2  C4    D T9000     -22.952   2.872  11.904  1.00 32.87     0.029 A 
HETATM    3  C19   D T9000     -20.747   2.033  12.534  1.00 30.98     0.173 A 
HETATM    4  N22   D T9000     -19.874   0.974  12.846  1.00 26.96    -0.078 NA
HETATM    5  N23   D T9000     -20.225   3.286  12.570  1.00 30.39    -0.228 NA
HETATM    6  C5    D T9000     -21.041   4.339  12.277  1.00 33.14     0.100 A 
HETATM    7  C14   D T9000     -22.423   4.203  11.931  1.00 34.48     0.024 A 
ENDROOT
BRANCH   1   8
HETATM    8  O27   D T9000     -22.534   0.397  12.224  1.00 33.85    -0.326 OA
BRANCH   8   9
HETATM    9  C21   D T9000     -23.880  -0.085  12.563  1.00 39.13     0.145 C 
HETATM   10  C1    D T9000     -23.730  -0.865  13.883  1.00 37.31     0.038 C 
BRANCH   9  11
HETATM   11  C17   D T9000     -24.549  -0.964  11.449  1.00 43.03     0.029 A 
HETATM   12  C13   D T9000     -25.503  -0.351  10.526  1.00 43.22     0.057 A 
HETATM   13 CL     D T9000     -25.950   1.332  10.584  1.00 44.26    -0.083 Cl
HETATM   14  C3    D T9000     -26.121  -1.140   9.510  1.00 43.32     0.013 A 
HETATM   15  C2    D T9000     -25.826  -2.520   9.375  1.00 42.25     0.031 A 
HETATM   16  C12   D T9000     -24.906  -3.158  10.250  1.00 45.15     0.150 A 
HETATM   17  F     D T9000     -24.662  -4.469  10.081  1.00 42.99    -0.203 F 
HETATM   18  C18   D T9000     -24.256  -2.400  11.293  1.00 44.96     0.084 A 
HETATM   19 CL2    D T9000     -23.129  -3.267  12.329  1.00 59.14    -0.080 Cl
ENDBRANCH   9  11
ENDBRANCH   8   9
ENDBRANCH   1   8
BRANCH   7  20
HETATM   20  C16   D T9000     -23.307   5.403  11.610  1.00 36.37     0.041 A 
HETATM   21  C6    D T9000     -24.488   5.435  10.744  1.00 37.83     0.122 A 
HETATM   22  N24   D T9000     -24.961   6.633  10.724  1.00 39.52    -0.168 NA
HETATM   23  N26   D T9000     -24.245   7.401  11.469  1.00 39.89    -0.252 N 
HETATM   24  C7    D T9000     -23.172   6.712  12.073  1.00 38.44     0.097 A 
BRANCH  23  25
HETATM   25  C20   D T9000     -24.562   8.843  11.637  1.00 45.76     0.110 C 
HETATM   26  C8    D T9000     -24.293   9.291  13.090  1.00 48.47     0.063 C 
HETATM   27  C10   D T9000     -24.627  10.796  13.238  1.00 51.46     0.292 C 
HETATM   28  N25   D T9000     -26.023  11.109  12.810  1.00 52.65     0.339 N 
HETATM   29  C11   D T9000     -26.320  10.648  11.424  1.00 50.34     0.292 C 
HETATM   30  C9    D T9000     -26.030   9.141  11.236  1.00 49.34     0.063 C 
ENDBRANCH  23  25
ENDBRANCH   7  20
TORSDOF 5
ENDMDL
