MODEL 1
REMARK VINA RESULT:      -8.1      0.000      0.000
REMARK  3 active torsions:
REMARK  status: ('A' for Active; 'I' for Inactive)
REMARK    1  A    between atoms: C2_2  and  O11_20 
REMARK    2  A    between atoms: C10_10  and  N14_11 
REMARK    3  A    between atoms: N14_11  and  C15_12 
ROOT
HETATM    1  C1    D T9001     -25.500   8.174  12.255  1.00 83.47     0.092 A 
HETATM    2  C2    D T9001     -24.858   9.374  12.708  1.00 83.68     0.109 A 
HETATM    3  C3    D T9001     -23.458   9.358  13.025  1.00 82.47     0.044 A 
HETATM    4  C4    D T9001     -22.677   8.201  12.912  1.00 82.50     0.088 A 
HETATM    5  C5    D T9001     -23.304   6.979  12.461  1.00 84.12     0.055 A 
HETATM    6  C6    D T9001     -24.718   6.990  12.138  1.00 83.53     0.021 A 
HETATM    7  N7    D T9001     -21.358   8.283  13.236  1.00 81.78    -0.224 NA
HETATM    8  C8    D T9001     -20.618   7.151  13.114  1.00 83.59     0.200 A 
HETATM    9  N9    D T9001     -21.076   5.944  12.705  1.00 84.30    -0.205 NA
HETATM   10  C10   D T9001     -22.423   5.845  12.374  1.00 85.59     0.166 A 
HETATM   11  N13   D T9001     -26.876   8.149  11.928  1.00 82.67    -0.099 NA
ENDROOT
BRANCH  10  12
HETATM   12  N14   D T9001     -22.945   4.575  11.937  1.00 86.44    -0.227 NA
BRANCH  12  13
HETATM   13  C15   D T9001     -22.944   3.358  12.674  1.00 87.38     0.084 A 
HETATM   14  C16   D T9001     -22.206   2.213  12.230  1.00 88.13     0.033 A 
HETATM   15  C17   D T9001     -22.215   1.004  12.964  1.00 88.88     0.087 A 
HETATM   16  C18   D T9001     -22.972   0.923  14.163  1.00 88.55     0.151 A 
HETATM   17 CL     D T9001     -21.308  -0.347  12.375  1.00 89.26    -0.080 Cl
HETATM   18  C19   D T9001     -23.713   2.045  14.633  1.00 87.62     0.032 A 
HETATM   19  F21   D T9001     -22.994  -0.218  14.872  1.00 88.92    -0.203 F 
HETATM   20  C20   D T9001     -23.702   3.258  13.890  1.00 87.82     0.021 A 
ENDBRANCH  12  13
ENDBRANCH  10  12
BRANCH   2  21
HETATM   21  O11   D T9001     -25.681  10.493  12.796  1.00 85.44    -0.327 OA
HETATM   22  C12   D T9001     -25.332  11.514  13.738  1.00 84.41     0.181 C 
ENDBRANCH   2  21
TORSDOF 3
ENDMDL
MODEL 2
REMARK VINA RESULT:      -7.9      4.321      7.051
REMARK  3 active torsions:
REMARK  status: ('A' for Active; 'I' for Inactive)
REMARK    1  A    between atoms: C2_2  and  O11_20 
REMARK    2  A    between atoms: C10_10  and  N14_11 
REMARK    3  A    between atoms: N14_11  and  C15_12 
ROOT
HETATM    1  C1    D T9001     -23.347   2.180  12.585  1.00 83.47     0.092 A 
HETATM    2  C2    D T9001     -22.839   1.101  13.381  1.00 83.68     0.109 A 
HETATM    3  C3    D T9001     -21.463   1.102  13.790  1.00 82.47     0.044 A 
HETATM    4  C4    D T9001     -20.578   2.130  13.440  1.00 82.50     0.088 A 
HETATM    5  C5    D T9001     -21.068   3.226  12.635  1.00 84.12     0.055 A 
HETATM    6  C6    D T9001     -22.457   3.229  12.220  1.00 83.53     0.021 A 
HETATM    7  N7    D T9001     -19.292   2.045  13.875  1.00 81.78    -0.224 NA
HETATM    8  C8    D T9001     -18.452   3.054  13.528  1.00 83.59     0.200 A 
HETATM    9  N9    D T9001     -18.777   4.136  12.782  1.00 84.30    -0.205 NA
HETATM   10  C10   D T9001     -20.088   4.234  12.328  1.00 85.59     0.166 A 
HETATM   11  N13   D T9001     -24.697   2.217  12.164  1.00 82.67    -0.099 NA
ENDROOT
BRANCH  10  12
HETATM   12  N14   D T9001     -20.469   5.371  11.529  1.00 86.44    -0.227 NA
BRANCH  12  13
HETATM   13  C15   D T9001     -21.191   6.514  11.970  1.00 87.38     0.084 A 
HETATM   14  C16   D T9001     -22.476   6.844  11.429  1.00 88.13     0.033 A 
HETATM   15  C17   D T9001     -23.185   7.986  11.868  1.00 88.88     0.087 A 
HETATM   16  C18   D T9001     -22.612   8.823  12.862  1.00 88.55     0.151 A 
HETATM   17 CL     D T9001     -24.732   8.337  11.174  1.00 89.26    -0.080 Cl
HETATM   18  C19   D T9001     -21.339   8.521  13.422  1.00 87.62     0.032 A 
HETATM   19  F21   D T9001     -23.271   9.915  13.288  1.00 88.92    -0.203 F 
HETATM   20  C20   D T9001     -20.628   7.372  12.975  1.00 87.82     0.021 A 
ENDBRANCH  12  13
ENDBRANCH  10  12
BRANCH   2  21
HETATM   21  O11   D T9001     -23.764   0.111  13.703  1.00 85.44    -0.327 OA
HETATM   22  C12   D T9001     -23.539  -1.211  13.201  1.00 84.41     0.181 C 
ENDBRANCH   2  21
TORSDOF 3
ENDMDL
MODEL 3
REMARK VINA RESULT:      -7.8      4.541      7.479
REMARK  3 active torsions:
REMARK  status: ('A' for Active; 'I' for Inactive)
REMARK    1  A    between atoms: C2_2  and  O11_20 
REMARK    2  A    between atoms: C10_10  and  N14_11 
REMARK    3  A    between atoms: N14_11  and  C15_12 
ROOT
HETATM    1  C1    D T9001     -20.063   2.318  11.526  1.00 83.47     0.092 A 
HETATM    2  C2    D T9001     -19.742   1.525  12.677  1.00 83.68     0.109 A 
HETATM    3  C3    D T9001     -20.688   1.409  13.750  1.00 82.47     0.044 A 
HETATM    4  C4    D T9001     -21.934   2.049  13.723  1.00 82.50     0.088 A 
HETATM    5  C5    D T9001     -22.277   2.856  12.575  1.00 84.12     0.055 A 
HETATM    6  C6    D T9001     -21.325   2.976  11.488  1.00 83.53     0.021 A 
HETATM    7  N7    D T9001     -22.765   1.880  14.787  1.00 81.78    -0.224 NA
HETATM    8  C8    D T9001     -23.970   2.505  14.738  1.00 83.59     0.200 A 
HETATM    9  N9    D T9001     -24.417   3.288  13.728  1.00 84.30    -0.205 NA
HETATM   10  C10   D T9001     -23.577   3.472  12.636  1.00 85.59     0.166 A 
HETATM   11  N13   D T9001     -19.159   2.455  10.446  1.00 82.67    -0.099 NA
ENDROOT
BRANCH  10  12
HETATM   12  N14   D T9001     -24.019   4.301  11.543  1.00 86.44    -0.227 NA
BRANCH  12  13
HETATM   13  C15   D T9001     -23.850   5.708  11.424  1.00 87.38     0.084 A 
HETATM   14  C16   D T9001     -22.894   6.419  12.220  1.00 88.13     0.033 A 
HETATM   15  C17   D T9001     -22.736   7.819  12.101  1.00 88.88     0.087 A 
HETATM   16  C18   D T9001     -23.541   8.535  11.176  1.00 88.55     0.151 A 
HETATM   17 CL     D T9001     -21.568   8.624  13.093  1.00 89.26    -0.080 Cl
HETATM   18  C19   D T9001     -24.498   7.858  10.367  1.00 87.62     0.032 A 
HETATM   19  F21   D T9001     -23.407   9.867  11.051  1.00 88.92    -0.203 F 
HETATM   20  C20   D T9001     -24.654   6.449  10.493  1.00 87.82     0.021 A 
ENDBRANCH  12  13
ENDBRANCH  10  12
BRANCH   2  21
HETATM   21  O11   D T9001     -18.494   0.908  12.647  1.00 85.44    -0.327 OA
HETATM   22  C12   D T9001     -17.403   1.562  13.305  1.00 84.41     0.181 C 
ENDBRANCH   2  21
TORSDOF 3
ENDMDL
MODEL 4
REMARK VINA RESULT:      -7.7      2.632      3.802
REMARK  3 active torsions:
REMARK  status: ('A' for Active; 'I' for Inactive)
REMARK    1  A    between atoms: C2_2  and  O11_20 
REMARK    2  A    between atoms: C10_10  and  N14_11 
REMARK    3  A    between atoms: N14_11  and  C15_12 
ROOT
HETATM    1  C1    D T9001     -22.936   8.010  12.185  1.00 83.47     0.092 A 
HETATM    2  C2    D T9001     -23.868   8.367  11.155  1.00 83.68     0.109 A 
HETATM    3  C3    D T9001     -24.587   7.341  10.456  1.00 82.47     0.044 A 
HETATM    4  C4    D T9001     -24.416   5.980  10.740  1.00 82.50     0.088 A 
HETATM    5  C5    D T9001     -23.479   5.597  11.772  1.00 84.12     0.055 A 
HETATM    6  C6    D T9001     -22.750   6.630  12.481  1.00 83.53     0.021 A 
HETATM    7  N7    D T9001     -25.142   5.079  10.025  1.00 81.78    -0.224 NA
HETATM    8  C8    D T9001     -24.964   3.765  10.319  1.00 83.59     0.200 A 
HETATM    9  N9    D T9001     -24.123   3.270  11.257  1.00 84.30    -0.205 NA
HETATM   10  C10   D T9001     -23.372   4.179  11.994  1.00 85.59     0.166 A 
HETATM   11  N13   D T9001     -22.210   8.992  12.899  1.00 82.67    -0.099 NA
ENDROOT
BRANCH  10  12
HETATM   12  N14   D T9001     -22.465   3.686  12.999  1.00 86.44    -0.227 NA
BRANCH  12  13
HETATM   13  C15   D T9001     -21.135   3.227  12.790  1.00 87.38     0.084 A 
HETATM   14  C16   D T9001     -20.863   1.892  12.346  1.00 88.13     0.033 A 
HETATM   15  C17   D T9001     -19.538   1.440  12.147  1.00 88.88     0.087 A 
HETATM   16  C18   D T9001     -18.456   2.326  12.393  1.00 88.55     0.151 A 
HETATM   17 CL     D T9001     -19.272  -0.185  11.614  1.00 89.26    -0.080 Cl
HETATM   18  C19   D T9001     -18.692   3.660  12.831  1.00 87.62     0.032 A 
HETATM   19  F21   D T9001     -17.190   1.912  12.211  1.00 88.92    -0.203 F 
HETATM   20  C20   D T9001     -20.027   4.109  13.032  1.00 87.82     0.021 A 
ENDBRANCH  12  13
ENDBRANCH  10  12
BRANCH   2  21
HETATM   21  O11   D T9001     -24.001   9.733  10.920  1.00 85.44    -0.327 OA
HETATM   22  C12   D T9001     -25.235  10.205  10.367  1.00 84.41     0.181 C 
ENDBRANCH   2  21
TORSDOF 3
ENDMDL
MODEL 5
REMARK VINA RESULT:      -7.7      4.577      7.536
REMARK  3 active torsions:
REMARK  status: ('A' for Active; 'I' for Inactive)
REMARK    1  A    between atoms: C2_2  and  O11_20 
REMARK    2  A    between atoms: C10_10  and  N14_11 
REMARK    3  A    between atoms: N14_11  and  C15_12 
ROOT
HETATM    1  C1    D T9001     -19.802   3.715  12.459  1.00 83.47     0.092 A 
HETATM    2  C2    D T9001     -19.478   2.474  11.818  1.00 83.68     0.109 A 
HETATM    3  C3    D T9001     -20.528   1.637  11.313  1.00 82.47     0.044 A 
HETATM    4  C4    D T9001     -21.881   1.983  11.420  1.00 82.50     0.088 A 
HETATM    5  C5    D T9001     -22.230   3.228  12.066  1.00 84.12     0.055 A 
HETATM    6  C6    D T9001     -21.173   4.078  12.579  1.00 83.53     0.021 A 
HETATM    7  N7    D T9001     -22.805   1.126  10.911  1.00 81.78    -0.224 NA
HETATM    8  C8    D T9001     -24.111   1.484  11.022  1.00 83.59     0.200 A 
HETATM    9  N9    D T9001     -24.576   2.616  11.601  1.00 84.30    -0.205 NA
HETATM   10  C10   D T9001     -23.643   3.500  12.129  1.00 85.59     0.166 A 
HETATM   11  N13   D T9001     -18.796   4.570  12.968  1.00 82.67    -0.099 NA
ENDROOT
BRANCH  10  12
HETATM   12  N14   D T9001     -24.103   4.714  12.754  1.00 86.44    -0.227 NA
BRANCH  12  13
HETATM   13  C15   D T9001     -24.051   6.025  12.203  1.00 87.38     0.084 A 
HETATM   14  C16   D T9001     -23.185   7.031  12.742  1.00 88.13     0.033 A 
HETATM   15  C17   D T9001     -23.144   8.334  12.194  1.00 88.88     0.087 A 
HETATM   16  C18   D T9001     -23.978   8.652  11.090  1.00 88.55     0.151 A 
HETATM   17 CL     D T9001     -22.081   9.509  12.890  1.00 89.26    -0.080 Cl
HETATM   18  C19   D T9001     -24.847   7.673  10.529  1.00 87.62     0.032 A 
HETATM   19  F21   D T9001     -23.954   9.886  10.558  1.00 88.92    -0.203 F 
HETATM   20  C20   D T9001     -24.886   6.364  11.086  1.00 87.82     0.021 A 
ENDBRANCH  12  13
ENDBRANCH  10  12
BRANCH   2  21
HETATM   21  O11   D T9001     -18.118   2.184  11.734  1.00 85.44    -0.327 OA
HETATM   22  C12   D T9001     -17.712   0.816  11.862  1.00 84.41     0.181 C 
ENDBRANCH   2  21
TORSDOF 3
ENDMDL
MODEL 6
REMARK VINA RESULT:      -7.6      2.604      3.566
REMARK  3 active torsions:
REMARK  status: ('A' for Active; 'I' for Inactive)
REMARK    1  A    between atoms: C2_2  and  O11_20 
REMARK    2  A    between atoms: C10_10  and  N14_11 
REMARK    3  A    between atoms: N14_11  and  C15_12 
ROOT
HETATM    1  C1    D T9001     -23.126   5.705  12.396  1.00 83.47     0.092 A 
HETATM    2  C2    D T9001     -22.195   6.596  13.022  1.00 83.68     0.109 A 
HETATM    3  C3    D T9001     -20.839   6.178  13.235  1.00 82.47     0.044 A 
HETATM    4  C4    D T9001     -20.376   4.912  12.851  1.00 82.50     0.088 A 
HETATM    5  C5    D T9001     -21.299   3.996  12.221  1.00 84.12     0.055 A 
HETATM    6  C6    D T9001     -22.670   4.414  12.004  1.00 83.53     0.021 A 
HETATM    7  N7    D T9001     -19.073   4.605  13.093  1.00 81.78    -0.224 NA
HETATM    8  C8    D T9001     -18.644   3.375  12.709  1.00 83.59     0.200 A 
HETATM    9  N9    D T9001     -19.399   2.423  12.111  1.00 84.30    -0.205 NA
HETATM   10  C10   D T9001     -20.733   2.722  11.860  1.00 85.59     0.166 A 
HETATM   11  N13   D T9001     -24.471   6.080  12.166  1.00 82.67    -0.099 NA
ENDROOT
BRANCH  10  12
HETATM   12  N14   D T9001     -21.567   1.732  11.228  1.00 86.44    -0.227 NA
BRANCH  12  13
HETATM   13  C15   D T9001     -22.415   0.795  11.880  1.00 87.38     0.084 A 
HETATM   14  C16   D T9001     -23.444   0.093  11.171  1.00 88.13     0.033 A 
HETATM   15  C17   D T9001     -24.288  -0.832  11.828  1.00 88.88     0.087 A 
HETATM   16  C18   D T9001     -24.114  -1.069  13.217  1.00 88.55     0.151 A 
HETATM   17 CL     D T9001     -25.516  -1.646  10.919  1.00 89.26    -0.080 Cl
HETATM   18  C19   D T9001     -23.099  -0.391  13.950  1.00 87.62     0.032 A 
HETATM   19  F21   D T9001     -24.910  -1.943  13.858  1.00 88.92    -0.203 F 
HETATM   20  C20   D T9001     -22.254   0.541  13.285  1.00 87.82     0.021 A 
ENDBRANCH  12  13
ENDBRANCH  10  12
BRANCH   2  21
HETATM   21  O11   D T9001     -22.708   7.841  13.377  1.00 85.44    -0.327 OA
HETATM   22  C12   D T9001     -21.954   9.007  13.025  1.00 84.41     0.181 C 
ENDBRANCH   2  21
TORSDOF 3
ENDMDL
MODEL 7
REMARK VINA RESULT:      -7.6      4.653      7.595
REMARK  3 active torsions:
REMARK  status: ('A' for Active; 'I' for Inactive)
REMARK    1  A    between atoms: C2_2  and  O11_20 
REMARK    2  A    between atoms: C10_10  and  N14_11 
REMARK    3  A    between atoms: N14_11  and  C15_12 
ROOT
HETATM    1  C1    D T9001     -19.591   2.994  11.486  1.00 83.47     0.092 A 
HETATM    2  C2    D T9001     -19.230   1.861  12.288  1.00 83.68     0.109 A 
HETATM    3  C3    D T9001     -20.125   1.396  13.309  1.00 82.47     0.044 A 
HETATM    4  C4    D T9001     -21.358   2.010  13.563  1.00 82.50     0.088 A 
HETATM    5  C5    D T9001     -21.740   3.156  12.768  1.00 84.12     0.055 A 
HETATM    6  C6    D T9001     -20.840   3.630  11.735  1.00 83.53     0.021 A 
HETATM    7  N7    D T9001     -22.139   1.498  14.551  1.00 81.78    -0.224 NA
HETATM    8  C8    D T9001     -23.332   2.106  14.777  1.00 83.59     0.200 A 
HETATM    9  N9    D T9001     -23.812   3.182  14.111  1.00 84.30    -0.205 NA
HETATM   10  C10   D T9001     -23.023   3.719  13.100  1.00 85.59     0.166 A 
HETATM   11  N13   D T9001     -18.739   3.481  10.467  1.00 82.67    -0.099 NA
ENDROOT
BRANCH  10  12
HETATM   12  N14   D T9001     -23.502   4.866  12.371  1.00 86.44    -0.227 NA
BRANCH  12  13
HETATM   13  C15   D T9001     -23.054   6.209  12.513  1.00 87.38     0.084 A 
HETATM   14  C16   D T9001     -23.707   7.292  11.841  1.00 88.13     0.033 A 
HETATM   15  C17   D T9001     -23.252   8.624  11.981  1.00 88.88     0.087 A 
HETATM   16  C18   D T9001     -22.124   8.892  12.801  1.00 88.55     0.151 A 
HETATM   17 CL     D T9001     -24.080   9.891  11.141  1.00 89.26    -0.080 Cl
HETATM   18  C19   D T9001     -21.455   7.838  13.485  1.00 87.62     0.032 A 
HETATM   19  F21   D T9001     -21.676  10.151  12.943  1.00 88.92    -0.203 F 
HETATM   20  C20   D T9001     -21.916   6.499  13.339  1.00 87.82     0.021 A 
ENDBRANCH  12  13
ENDBRANCH  10  12
BRANCH   2  21
HETATM   21  O11   D T9001     -17.997   1.287  11.988  1.00 85.44    -0.327 OA
HETATM   22  C12   D T9001     -16.989   1.286  13.005  1.00 84.41     0.181 C 
ENDBRANCH   2  21
TORSDOF 3
ENDMDL
MODEL 8
REMARK VINA RESULT:      -7.5      3.590      5.325
REMARK  3 active torsions:
REMARK  status: ('A' for Active; 'I' for Inactive)
REMARK    1  A    between atoms: C2_2  and  O11_20 
REMARK    2  A    between atoms: C10_10  and  N14_11 
REMARK    3  A    between atoms: N14_11  and  C15_12 
ROOT
HETATM    1  C1    D T9001     -22.208   4.467  12.815  1.00 83.47     0.092 A 
HETATM    2  C2    D T9001     -21.101   5.108  12.167  1.00 83.68     0.109 A 
HETATM    3  C3    D T9001     -19.998   4.321  11.695  1.00 82.47     0.044 A 
HETATM    4  C4    D T9001     -19.953   2.929  11.843  1.00 82.50     0.088 A 
HETATM    5  C5    D T9001     -21.056   2.263  12.497  1.00 84.12     0.055 A 
HETATM    6  C6    D T9001     -22.174   3.053  12.975  1.00 83.53     0.021 A 
HETATM    7  N7    D T9001     -18.865   2.267  11.364  1.00 81.78    -0.224 NA
HETATM    8  C8    D T9001     -18.844   0.917  11.513  1.00 83.59     0.200 A 
HETATM    9  N9    D T9001     -19.806   0.170  12.103  1.00 84.30    -0.205 NA
HETATM   10  C10   D T9001     -20.922   0.833  12.601  1.00 85.59     0.166 A 
HETATM   11  N13   D T9001     -23.316   5.207  13.292  1.00 82.67    -0.099 NA
ENDROOT
BRANCH  10  12
HETATM   12  N14   D T9001     -21.965   0.069  13.237  1.00 86.44    -0.227 NA
BRANCH  12  13
HETATM   13  C15   D T9001     -23.030  -0.617  12.590  1.00 87.38     0.084 A 
HETATM   14  C16   D T9001     -23.304  -0.432  11.196  1.00 88.13     0.033 A 
HETATM   15  C17   D T9001     -24.368  -1.112  10.561  1.00 88.88     0.087 A 
HETATM   16  C18   D T9001     -25.183  -1.993  11.319  1.00 88.55     0.151 A 
HETATM   17 CL     D T9001     -24.653  -0.844   8.874  1.00 89.26    -0.080 Cl
HETATM   18  C19   D T9001     -24.936  -2.202  12.705  1.00 87.62     0.032 A 
HETATM   19  F21   D T9001     -26.201  -2.646  10.732  1.00 88.92    -0.203 F 
HETATM   20  C20   D T9001     -23.864  -1.513  13.340  1.00 87.82     0.021 A 
ENDBRANCH  12  13
ENDBRANCH  10  12
BRANCH   2  21
HETATM   21  O11   D T9001     -21.202   6.491  12.043  1.00 85.44    -0.327 OA
HETATM   22  C12   D T9001     -20.648   7.304  13.084  1.00 84.41     0.181 C 
ENDBRANCH   2  21
TORSDOF 3
ENDMDL
MODEL 9
REMARK VINA RESULT:      -7.4      7.281     10.744
REMARK  3 active torsions:
REMARK  status: ('A' for Active; 'I' for Inactive)
REMARK    1  A    between atoms: C2_2  and  O11_20 
REMARK    2  A    between atoms: C10_10  and  N14_11 
REMARK    3  A    between atoms: N14_11  and  C15_12 
ROOT
HETATM    1  C1    D T9001     -23.042  -5.509  12.402  1.00 83.47     0.092 A 
HETATM    2  C2    D T9001     -23.494  -6.078  11.166  1.00 83.68     0.109 A 
HETATM    3  C3    D T9001     -24.275  -5.285  10.259  1.00 82.47     0.044 A 
HETATM    4  C4    D T9001     -24.622  -3.956  10.533  1.00 82.50     0.088 A 
HETATM    5  C5    D T9001     -24.180  -3.364  11.775  1.00 84.12     0.055 A 
HETATM    6  C6    D T9001     -23.390  -4.160  12.694  1.00 83.53     0.021 A 
HETATM    7  N7    D T9001     -25.364  -3.284   9.613  1.00 81.78    -0.224 NA
HETATM    8  C8    D T9001     -25.686  -1.995   9.896  1.00 83.59     0.200 A 
HETATM    9  N9    D T9001     -25.339  -1.320  11.016  1.00 84.30    -0.205 NA
HETATM   10  C10   D T9001     -24.582  -1.995  11.967  1.00 85.59     0.166 A 
HETATM   11  N13   D T9001     -22.268  -6.256  13.321  1.00 82.67    -0.099 NA
ENDROOT
BRANCH  10  12
HETATM   12  N14   D T9001     -24.197  -1.307  13.174  1.00 86.44    -0.227 NA
BRANCH  12  13
HETATM   13  C15   D T9001     -23.089  -0.429  13.333  1.00 87.38     0.084 A 
HETATM   14  C16   D T9001     -21.912  -0.553  12.524  1.00 88.13     0.033 A 
HETATM   15  C17   D T9001     -20.812   0.319  12.692  1.00 88.88     0.087 A 
HETATM   16  C18   D T9001     -20.873   1.335  13.682  1.00 88.55     0.151 A 
HETATM   17 CL     D T9001     -19.416   0.119  11.689  1.00 89.26    -0.080 Cl
HETATM   18  C19   D T9001     -22.029   1.486  14.500  1.00 87.62     0.032 A 
HETATM   19  F21   D T9001     -19.835   2.171  13.858  1.00 88.92    -0.203 F 
HETATM   20  C20   D T9001     -23.133   0.605  14.328  1.00 87.82     0.021 A 
ENDBRANCH  12  13
ENDBRANCH  10  12
BRANCH   2  21
HETATM   21  O11   D T9001     -23.116  -7.399  10.944  1.00 85.44    -0.327 OA
HETATM   22  C12   D T9001     -24.095  -8.424  11.147  1.00 84.41     0.181 C 
ENDBRANCH   2  21
TORSDOF 3
ENDMDL
