MODEL 1
REMARK VINA RESULT:    -9.391      0.000      0.000
REMARK INTER + INTRA:         -21.902
REMARK INTER:                 -19.272
REMARK INTRA:                  -2.630
REMARK UNBOUND:                -2.630
REMARK  18 active torsions:
REMARK  status: ('A' for Active; 'I' for Inactive)
REMARK    1  A    between atoms: C2_2  and  C6_6 
REMARK    2  A    between atoms: C6_6  and  O7_7 
REMARK    3  A    between atoms: O7_7  and  C10_8 
REMARK       I    between atoms: C10_8  and  N11_10 
REMARK    4  A    between atoms: N11_10  and  C12_11 
REMARK    5  A    between atoms: C12_11  and  C13_12 
REMARK    6  A    between atoms: C12_11  and  C26_15 
REMARK    7  A    between atoms: C13_12  and  C14_13 
REMARK    8  A    between atoms: C14_13  and  C15_14 
REMARK    9  A    between atoms: C15_14  and  C44_23 
REMARK   10  A    between atoms: C15_14  and  N58_30 
REMARK   11  A    between atoms: C26_15  and  C28_16 
REMARK   12  A    between atoms: C44_23  and  C45_24 
REMARK       I    between atoms: N58_30  and  C18_33 
REMARK   13  A    between atoms: N20_31  and  C19_32 
REMARK       I    between atoms: N20_31  and  C21_38 
REMARK   14  A    between atoms: C19_32  and  C18_33 
REMARK   15  A    between atoms: C19_32  and  C62_35 
REMARK       I    between atoms: C21_38  and  N74_39 
REMARK   16  A    between atoms: N74_39  and  C75_40 
REMARK   17  A    between atoms: C75_40  and  C77_42 
REMARK   18  A    between atoms: C82_45  and  C85_47 
ROOT
HETATM    1  C15   D T 401       3.688  13.985  -0.477  1.00 59.81     0.113 C 
ENDROOT
BRANCH   1   2
HETATM    2  C14   D T 401       4.900  13.068  -0.694  1.00 58.93     0.060 C 
BRANCH   2   3
HETATM    3  C13   D T 401       6.179  13.396   0.112  1.00 59.07     0.177 C 
HETATM    4  O41   D T 401       7.303  13.148  -0.725  1.00 58.43    -0.221 OA
BRANCH   3   5
HETATM    5  C12   D T 401       6.365  12.586   1.398  1.00 59.52     0.143 C 
BRANCH   5   6
HETATM    6  N11   D T 401       7.747  12.754   1.820  1.00 58.37    -0.211 NA
HETATM    7  C10   D T 401       8.465  11.677   2.086  1.00 59.08     0.384 C 
HETATM    8  O24   D T 401       7.951  10.559   2.074  1.00 59.19    -0.236 OA
BRANCH   7   9
HETATM    9  O7    D T 401       9.885  11.810   2.376  1.00 58.33    -0.278 OA
BRANCH   9  10
HETATM   10  C6    D T 401      10.589  10.618   2.671  1.00 59.85     0.188 C 
BRANCH  10  11
HETATM   11  C2    D T 401      10.728  10.541   4.157  1.00 62.87     0.058 A 
HETATM   12  C1    D T 401      11.499  11.228   5.089  1.00 63.59     0.104 A 
HETATM   13  N5    D T 401      11.282  10.746   6.365  1.00 65.21    -0.235 NA
HETATM   14  C4    D T 401      10.390   9.721   6.491  1.00 64.03     0.134 A 
HETATM   15  S3    D T 401       9.787   9.306   4.928  1.00 63.44    -0.066 SA
ENDBRANCH  10  11
ENDBRANCH   9  10
ENDBRANCH   7   9
ENDBRANCH   5   6
BRANCH   5  16
HETATM   16  C26   D T 401       5.399  12.922   2.555  1.00 59.99     0.053 C 
BRANCH  16  17
HETATM   17  C28   D T 401       4.520  11.731   2.925  1.00 61.27    -0.020 A 
HETATM   18  C31   D T 401       3.246  11.579   2.349  1.00 62.70    -0.004 A 
HETATM   19  C32   D T 401       2.419  10.486   2.679  1.00 62.25    -0.000 A 
HETATM   20  C33   D T 401       2.854   9.517   3.583  1.00 60.89    -0.000 A 
HETATM   21  C34   D T 401       4.118   9.655   4.163  1.00 61.83    -0.000 A 
HETATM   22  C35   D T 401       4.947  10.758   3.842  1.00 61.69    -0.004 A 
ENDBRANCH  16  17
ENDBRANCH   5  16
ENDBRANCH   3   5
ENDBRANCH   2   3
ENDBRANCH   1   2
BRANCH   1  23
HETATM   23  C44   D T 401       2.412  13.317  -1.021  1.00 61.03     0.051 C 
BRANCH  23  24
HETATM   24  C45   D T 401       1.155  13.465  -0.170  1.00 62.14    -0.020 A 
HETATM   25  C48   D T 401      -0.052  13.209  -0.820  1.00 62.95    -0.004 A 
HETATM   26  C49   D T 401      -1.286  13.272  -0.154  1.00 63.23    -0.000 A 
HETATM   27  C50   D T 401      -1.318  13.590   1.201  1.00 64.66    -0.000 A 
HETATM   28  C51   D T 401      -0.113  13.846   1.872  1.00 64.50    -0.000 A 
HETATM   29  C52   D T 401       1.119  13.779   1.202  1.00 63.39    -0.004 A 
ENDBRANCH  23  24
ENDBRANCH   1  23
BRANCH   1  30
HETATM   30  N58   D T 401       3.779  15.215  -1.213  1.00 60.63    -0.238 NA
HETATM   31  C18   D T 401       4.095  15.377  -2.487  1.00 62.24     0.274 C 
HETATM   32  O61   D T 401       4.323  14.517  -3.337  1.00 61.50    -0.268 OA
BRANCH  31  33
HETATM   33  C19   D T 401       4.179  16.832  -2.801  1.00 64.75     0.188 C 
BRANCH  33  34
HETATM   34  N20   D T 401       4.357  17.001  -4.228  1.00 65.69    -0.211 NA
HETATM   35  C21   D T 401       5.502  17.413  -4.708  1.00 66.79     0.343 C 
HETATM   36  N74   D T 401       5.511  18.194  -5.775  1.00 71.41    -0.294 N 
HETATM   37  O76   D T 401       6.527  17.219  -4.108  1.00 67.85    -0.245 OA
HETATM   38  C95   D T 401       4.471  19.177  -6.095  1.00 70.78     0.131 C 
BRANCH  36  39
HETATM   39  C75   D T 401       6.631  18.176  -6.702  1.00 74.33     0.152 C 
BRANCH  39  40
HETATM   40  C77   D T 401       7.208  19.554  -6.704  1.00 76.44     0.088 A 
HETATM   41  C80   D T 401       7.927  20.110  -5.640  1.00 78.25     0.053 A 
HETATM   42  S81   D T 401       8.430  21.712  -6.051  1.00 82.00    -0.070 SA
HETATM   43  C82   D T 401       7.682  21.602  -7.626  1.00 80.73     0.088 A 
HETATM   44  N83   D T 401       7.089  20.382  -7.789  1.00 78.96    -0.245 NA
BRANCH  43  45
HETATM   45  C85   D T 401       7.791  22.776  -8.532  1.00 81.61     0.047 C 
HETATM   46  C86   D T 401       6.683  22.773  -9.593  1.00 81.16     0.007 C 
HETATM   47  C90   D T 401       9.202  22.806  -9.146  1.00 82.31     0.007 C 
ENDBRANCH  43  45
ENDBRANCH  39  40
ENDBRANCH  36  39
ENDBRANCH  33  34
BRANCH  33  48
HETATM   48  C62   D T 401       2.900  17.575  -2.364  1.00 64.68     0.032 C 
HETATM   49  C64   D T 401       3.176  18.576  -1.256  1.00 64.29     0.003 C 
HETATM   50  C68   D T 401       2.196  18.245  -3.541  1.00 63.77     0.003 C 
ENDBRANCH  33  48
ENDBRANCH  31  33
ENDBRANCH   1  30
TORSDOF 18
ENDMDL
MODEL 2
REMARK VINA RESULT:    -9.387      2.868      4.282
REMARK INTER + INTRA:         -21.895
REMARK INTER:                 -19.178
REMARK INTRA:                  -2.717
REMARK UNBOUND:                -2.630
REMARK  18 active torsions:
REMARK  status: ('A' for Active; 'I' for Inactive)
REMARK    1  A    between atoms: C2_2  and  C6_6 
REMARK    2  A    between atoms: C6_6  and  O7_7 
REMARK    3  A    between atoms: O7_7  and  C10_8 
REMARK       I    between atoms: C10_8  and  N11_10 
REMARK    4  A    between atoms: N11_10  and  C12_11 
REMARK    5  A    between atoms: C12_11  and  C13_12 
REMARK    6  A    between atoms: C12_11  and  C26_15 
REMARK    7  A    between atoms: C13_12  and  C14_13 
REMARK    8  A    between atoms: C14_13  and  C15_14 
REMARK    9  A    between atoms: C15_14  and  C44_23 
REMARK   10  A    between atoms: C15_14  and  N58_30 
REMARK   11  A    between atoms: C26_15  and  C28_16 
REMARK   12  A    between atoms: C44_23  and  C45_24 
REMARK       I    between atoms: N58_30  and  C18_33 
REMARK   13  A    between atoms: N20_31  and  C19_32 
REMARK       I    between atoms: N20_31  and  C21_38 
REMARK   14  A    between atoms: C19_32  and  C18_33 
REMARK   15  A    between atoms: C19_32  and  C62_35 
REMARK       I    between atoms: C21_38  and  N74_39 
REMARK   16  A    between atoms: N74_39  and  C75_40 
REMARK   17  A    between atoms: C75_40  and  C77_42 
REMARK   18  A    between atoms: C82_45  and  C85_47 
ROOT
HETATM    1  C15   D T 401       3.876  14.390  -1.340  1.00 59.81     0.113 C 
ENDROOT
BRANCH   1   2
HETATM    2  C14   D T 401       4.994  13.527  -1.941  1.00 58.93     0.060 C 
BRANCH   2   3
HETATM    3  C13   D T 401       5.661  12.493  -1.004  1.00 59.07     0.177 C 
HETATM    4  O41   D T 401       4.639  11.662  -0.465  1.00 58.43    -0.221 OA
BRANCH   3   5
HETATM    5  C12   D T 401       6.449  13.087   0.168  1.00 59.52     0.143 C 
BRANCH   5   6
HETATM    6  N11   D T 401       7.157  14.254  -0.334  1.00 58.37    -0.211 NA
HETATM    7  C10   D T 401       8.381  14.491   0.107  1.00 59.08     0.384 C 
HETATM    8  O24   D T 401       8.876  13.798   0.994  1.00 59.19    -0.236 OA
BRANCH   7   9
HETATM    9  O7    D T 401       9.161  15.571  -0.480  1.00 58.33    -0.278 OA
BRANCH   9  10
HETATM   10  C6    D T 401       8.535  16.327  -1.500  1.00 59.85     0.188 C 
BRANCH  10  11
HETATM   11  C2    D T 401       9.195  15.964  -2.790  1.00 62.87     0.058 A 
HETATM   12  C1    D T 401       8.749  15.374  -3.968  1.00 63.59     0.104 A 
HETATM   13  N5    D T 401       9.783  15.222  -4.871  1.00 65.21    -0.235 NA
HETATM   14  C4    D T 401      11.015  15.656  -4.472  1.00 64.03     0.134 A 
HETATM   15  S3    D T 401      10.899  16.278  -2.867  1.00 63.44    -0.066 SA
ENDBRANCH  10  11
ENDBRANCH   9  10
ENDBRANCH   7   9
ENDBRANCH   5   6
BRANCH   5  16
HETATM   16  C26   D T 401       5.626  13.447   1.423  1.00 59.99     0.053 C 
BRANCH  16  17
HETATM   17  C28   D T 401       5.588  12.299   2.427  1.00 61.27    -0.020 A 
HETATM   18  C31   D T 401       4.359  11.800   2.894  1.00 62.70    -0.004 A 
HETATM   19  C32   D T 401       4.303  10.741   3.822  1.00 62.25    -0.000 A 
HETATM   20  C33   D T 401       5.476  10.150   4.294  1.00 60.89    -0.000 A 
HETATM   21  C34   D T 401       6.705  10.636   3.839  1.00 61.83    -0.000 A 
HETATM   22  C35   D T 401       6.765  11.708   2.913  1.00 61.69    -0.004 A 
ENDBRANCH  16  17
ENDBRANCH   5  16
ENDBRANCH   3   5
ENDBRANCH   2   3
ENDBRANCH   1   2
BRANCH   1  23
HETATM   23  C44   D T 401       2.502  13.765  -1.641  1.00 61.03     0.051 C 
BRANCH  23  24
HETATM   24  C45   D T 401       1.527  13.676  -0.472  1.00 62.14    -0.020 A 
HETATM   25  C48   D T 401       0.176  13.618  -0.809  1.00 62.95    -0.004 A 
HETATM   26  C49   D T 401      -0.832  13.498   0.160  1.00 63.23    -0.000 A 
HETATM   27  C50   D T 401      -0.482  13.425   1.506  1.00 64.66    -0.000 A 
HETATM   28  C51   D T 401       0.873  13.477   1.864  1.00 64.50    -0.000 A 
HETATM   29  C52   D T 401       1.877  13.595   0.890  1.00 63.39    -0.004 A 
ENDBRANCH  23  24
ENDBRANCH   1  23
BRANCH   1  30
HETATM   30  N58   D T 401       3.801  15.698  -1.930  1.00 60.63    -0.238 NA
HETATM   31  C18   D T 401       4.475  16.783  -1.587  1.00 62.24     0.274 C 
HETATM   32  O61   D T 401       5.354  16.903  -0.733  1.00 61.50    -0.268 OA
BRANCH  31  33
HETATM   33  C19   D T 401       3.999  17.944  -2.392  1.00 64.75     0.188 C 
BRANCH  33  34
HETATM   34  N20   D T 401       3.832  17.530  -3.770  1.00 65.69    -0.211 NA
HETATM   35  C21   D T 401       4.847  17.553  -4.595  1.00 66.79     0.343 C 
HETATM   36  N74   D T 401       4.640  17.860  -5.864  1.00 71.41    -0.294 N 
HETATM   37  O76   D T 401       5.974  17.449  -4.187  1.00 67.85    -0.245 OA
HETATM   38  C95   D T 401       3.612  18.793  -6.337  1.00 70.78     0.131 C 
BRANCH  36  39
HETATM   39  C75   D T 401       5.496  17.324  -6.910  1.00 74.33     0.152 C 
BRANCH  39  40
HETATM   40  C77   D T 401       6.727  18.170  -6.932  1.00 76.44     0.088 A 
HETATM   41  C80   D T 401       6.726  19.569  -6.863  1.00 78.25     0.053 A 
HETATM   42  S81   D T 401       8.352  20.154  -6.904  1.00 82.00    -0.070 SA
HETATM   43  C82   D T 401       8.993  18.532  -7.004  1.00 80.73     0.088 A 
HETATM   44  N83   D T 401       7.979  17.618  -7.001  1.00 78.96    -0.245 NA
BRANCH  43  45
HETATM   45  C85   D T 401      10.469  18.370  -7.063  1.00 81.61     0.047 C 
HETATM   46  C86   D T 401      11.159  19.656  -7.535  1.00 81.16     0.007 C 
HETATM   47  C90   D T 401      10.806  17.157  -7.948  1.00 82.31     0.007 C 
ENDBRANCH  43  45
ENDBRANCH  39  40
ENDBRANCH  36  39
ENDBRANCH  33  34
BRANCH  33  48
HETATM   48  C62   D T 401       2.653  18.478  -1.862  1.00 64.68     0.032 C 
HETATM   49  C64   D T 401       2.826  19.296  -0.594  1.00 64.29     0.003 C 
HETATM   50  C68   D T 401       1.895  19.273  -2.923  1.00 63.77     0.003 C 
ENDBRANCH  33  48
ENDBRANCH  31  33
ENDBRANCH   1  30
TORSDOF 18
ENDMDL
MODEL 3
REMARK VINA RESULT:    -9.343      2.122      2.462
REMARK INTER + INTRA:         -21.804
REMARK INTER:                 -18.862
REMARK INTRA:                  -2.942
REMARK UNBOUND:                -2.630
REMARK  18 active torsions:
REMARK  status: ('A' for Active; 'I' for Inactive)
REMARK    1  A    between atoms: C2_2  and  C6_6 
REMARK    2  A    between atoms: C6_6  and  O7_7 
REMARK    3  A    between atoms: O7_7  and  C10_8 
REMARK       I    between atoms: C10_8  and  N11_10 
REMARK    4  A    between atoms: N11_10  and  C12_11 
REMARK    5  A    between atoms: C12_11  and  C13_12 
REMARK    6  A    between atoms: C12_11  and  C26_15 
REMARK    7  A    between atoms: C13_12  and  C14_13 
REMARK    8  A    between atoms: C14_13  and  C15_14 
REMARK    9  A    between atoms: C15_14  and  C44_23 
REMARK   10  A    between atoms: C15_14  and  N58_30 
REMARK   11  A    between atoms: C26_15  and  C28_16 
REMARK   12  A    between atoms: C44_23  and  C45_24 
REMARK       I    between atoms: N58_30  and  C18_33 
REMARK   13  A    between atoms: N20_31  and  C19_32 
REMARK       I    between atoms: N20_31  and  C21_38 
REMARK   14  A    between atoms: C19_32  and  C18_33 
REMARK   15  A    between atoms: C19_32  and  C62_35 
REMARK       I    between atoms: C21_38  and  N74_39 
REMARK   16  A    between atoms: N74_39  and  C75_40 
REMARK   17  A    between atoms: C75_40  and  C77_42 
REMARK   18  A    between atoms: C82_45  and  C85_47 
ROOT
HETATM    1  C15   D T 401       3.598  14.004  -0.946  1.00 59.81     0.113 C 
ENDROOT
BRANCH   1   2
HETATM    2  C14   D T 401       4.575  12.824  -1.035  1.00 58.93     0.060 C 
BRANCH   2   3
HETATM    3  C13   D T 401       5.984  13.036  -0.432  1.00 59.07     0.177 C 
HETATM    4  O41   D T 401       6.932  12.426  -1.299  1.00 58.43    -0.221 OA
BRANCH   3   5
HETATM    5  C12   D T 401       6.188  12.452   0.969  1.00 59.52     0.143 C 
BRANCH   5   6
HETATM    6  N11   D T 401       7.552  12.758   1.372  1.00 58.37    -0.211 NA
HETATM    7  C10   D T 401       8.335  11.769   1.767  1.00 59.08     0.384 C 
HETATM    8  O24   D T 401       7.894  10.627   1.886  1.00 59.19    -0.236 OA
BRANCH   7   9
HETATM    9  O7    D T 401       9.741  12.029   2.043  1.00 58.33    -0.278 OA
BRANCH   9  10
HETATM   10  C6    D T 401      10.578  10.898   2.195  1.00 59.85     0.188 C 
BRANCH  10  11
HETATM   11  C2    D T 401      10.824  10.721   3.658  1.00 62.87     0.058 A 
HETATM   12  C1    D T 401      10.713   9.643   4.530  1.00 63.59     0.104 A 
HETATM   13  N5    D T 401      11.031  10.014   5.822  1.00 65.21    -0.235 NA
HETATM   14  C4    D T 401      11.384  11.318   6.017  1.00 64.03     0.134 A 
HETATM   15  S3    D T 401      11.300  12.155   4.510  1.00 63.44    -0.066 SA
ENDBRANCH  10  11
ENDBRANCH   9  10
ENDBRANCH   7   9
ENDBRANCH   5   6
BRANCH   5  16
HETATM   16  C26   D T 401       5.185  12.914   2.048  1.00 59.99     0.053 C 
BRANCH  16  17
HETATM   17  C28   D T 401       4.380  11.749   2.613  1.00 61.27    -0.020 A 
HETATM   18  C31   D T 401       3.099  11.457   2.108  1.00 62.70    -0.004 A 
HETATM   19  C32   D T 401       2.339  10.384   2.616  1.00 62.25    -0.000 A 
HETATM   20  C33   D T 401       2.848   9.574   3.632  1.00 60.89    -0.000 A 
HETATM   21  C34   D T 401       4.118   9.853   4.143  1.00 61.83    -0.000 A 
HETATM   22  C35   D T 401       4.881  10.937   3.641  1.00 61.69    -0.004 A 
ENDBRANCH  16  17
ENDBRANCH   5  16
ENDBRANCH   3   5
ENDBRANCH   2   3
ENDBRANCH   1   2
BRANCH   1  23
HETATM   23  C44   D T 401       2.185  13.557  -1.364  1.00 61.03     0.051 C 
BRANCH  23  24
HETATM   24  C45   D T 401       1.101  13.648  -0.295  1.00 62.14    -0.020 A 
HETATM   25  C48   D T 401      -0.185  13.299  -0.702  1.00 62.95    -0.004 A 
HETATM   26  C49   D T 401      -1.275  13.302   0.182  1.00 63.23    -0.000 A 
HETATM   27  C50   D T 401      -1.075  13.655   1.514  1.00 64.66    -0.000 A 
HETATM   28  C51   D T 401       0.214  14.006   1.943  1.00 64.50    -0.000 A 
HETATM   29  C52   D T 401       1.301  13.999   1.054  1.00 63.39    -0.004 A 
ENDBRANCH  23  24
ENDBRANCH   1  23
BRANCH   1  30
HETATM   30  N58   D T 401       3.914  15.063  -1.865  1.00 60.63    -0.238 NA
HETATM   31  C18   D T 401       4.695  16.110  -1.658  1.00 62.24     0.274 C 
HETATM   32  O61   D T 401       5.369  16.382  -0.664  1.00 61.50    -0.268 OA
BRANCH  31  33
HETATM   33  C19   D T 401       4.648  17.012  -2.844  1.00 64.75     0.188 C 
BRANCH  33  34
HETATM   34  N20   D T 401       4.911  16.238  -4.040  1.00 65.69    -0.211 NA
HETATM   35  C21   D T 401       6.141  15.987  -4.409  1.00 66.79     0.343 C 
HETATM   36  N74   D T 401       6.431  15.938  -5.697  1.00 71.41    -0.294 N 
HETATM   37  O76   D T 401       7.031  15.954  -3.600  1.00 67.85    -0.245 OA
HETATM   38  C95   D T 401       5.772  16.745  -6.730  1.00 70.78     0.131 C 
BRANCH  36  39
HETATM   39  C75   D T 401       7.511  15.096  -6.187  1.00 74.33     0.152 C 
BRANCH  39  40
HETATM   40  C77   D T 401       8.595  16.015  -6.647  1.00 76.44     0.088 A 
HETATM   41  C80   D T 401       9.183  15.969  -7.917  1.00 78.25     0.053 A 
HETATM   42  S81   D T 401      10.381  17.208  -8.049  1.00 82.00    -0.070 SA
HETATM   43  C82   D T 401      10.069  17.761  -6.421  1.00 80.73     0.088 A 
HETATM   44  N83   D T 401       9.087  17.008  -5.842  1.00 78.96    -0.245 NA
BRANCH  43  45
HETATM   45  C85   D T 401      10.856  18.915  -5.915  1.00 81.61     0.047 C 
HETATM   46  C86   D T 401      12.134  18.455  -5.200  1.00 81.16     0.007 C 
HETATM   47  C90   D T 401       9.956  19.785  -5.022  1.00 82.31     0.007 C 
ENDBRANCH  43  45
ENDBRANCH  39  40
ENDBRANCH  36  39
ENDBRANCH  33  34
BRANCH  33  48
HETATM   48  C62   D T 401       3.269  17.689  -2.978  1.00 64.68     0.032 C 
HETATM   49  C64   D T 401       2.928  18.530  -1.761  1.00 64.29     0.003 C 
HETATM   50  C68   D T 401       3.158  18.514  -4.258  1.00 63.77     0.003 C 
ENDBRANCH  33  48
ENDBRANCH  31  33
ENDBRANCH   1  30
TORSDOF 18
ENDMDL
MODEL 4
REMARK VINA RESULT:    -9.276      3.184      4.594
REMARK INTER + INTRA:         -21.667
REMARK INTER:                 -18.875
REMARK INTRA:                  -2.793
REMARK UNBOUND:                -2.630
REMARK  18 active torsions:
REMARK  status: ('A' for Active; 'I' for Inactive)
REMARK    1  A    between atoms: C2_2  and  C6_6 
REMARK    2  A    between atoms: C6_6  and  O7_7 
REMARK    3  A    between atoms: O7_7  and  C10_8 
REMARK       I    between atoms: C10_8  and  N11_10 
REMARK    4  A    between atoms: N11_10  and  C12_11 
REMARK    5  A    between atoms: C12_11  and  C13_12 
REMARK    6  A    between atoms: C12_11  and  C26_15 
REMARK    7  A    between atoms: C13_12  and  C14_13 
REMARK    8  A    between atoms: C14_13  and  C15_14 
REMARK    9  A    between atoms: C15_14  and  C44_23 
REMARK   10  A    between atoms: C15_14  and  N58_30 
REMARK   11  A    between atoms: C26_15  and  C28_16 
REMARK   12  A    between atoms: C44_23  and  C45_24 
REMARK       I    between atoms: N58_30  and  C18_33 
REMARK   13  A    between atoms: N20_31  and  C19_32 
REMARK       I    between atoms: N20_31  and  C21_38 
REMARK   14  A    between atoms: C19_32  and  C18_33 
REMARK   15  A    between atoms: C19_32  and  C62_35 
REMARK       I    between atoms: C21_38  and  N74_39 
REMARK   16  A    between atoms: N74_39  and  C75_40 
REMARK   17  A    between atoms: C75_40  and  C77_42 
REMARK   18  A    between atoms: C82_45  and  C85_47 
ROOT
HETATM    1  C15   D T 401       3.679  13.988  -0.737  1.00 59.81     0.113 C 
ENDROOT
BRANCH   1   2
HETATM    2  C14   D T 401       4.807  12.948  -0.691  1.00 58.93     0.060 C 
BRANCH   2   3
HETATM    3  C13   D T 401       6.251  13.473  -0.870  1.00 59.07     0.177 C 
HETATM    4  O41   D T 401       6.962  12.543  -1.679  1.00 58.43    -0.221 OA
BRANCH   3   5
HETATM    5  C12   D T 401       7.041  13.664   0.428  1.00 59.52     0.143 C 
BRANCH   5   6
HETATM    6  N11   D T 401       7.987  14.746   0.204  1.00 58.37    -0.211 NA
HETATM    7  C10   D T 401       9.261  14.546   0.494  1.00 59.08     0.384 C 
HETATM    8  O24   D T 401       9.628  13.503   1.034  1.00 59.19    -0.236 OA
BRANCH   7   9
HETATM    9  O7    D T 401      10.246  15.562   0.152  1.00 58.33    -0.278 OA
BRANCH   9  10
HETATM   10  C6    D T 401      11.372  15.132  -0.590  1.00 59.85     0.188 C 
BRANCH  10  11
HETATM   11  C2    D T 401      11.268  15.742  -1.950  1.00 62.87     0.058 A 
HETATM   12  C1    D T 401      11.874  15.477  -3.173  1.00 63.59     0.104 A 
HETATM   13  N5    D T 401      11.454  16.370  -4.140  1.00 65.21    -0.235 NA
HETATM   14  C4    D T 401      10.555  17.320  -3.749  1.00 64.03     0.134 A 
HETATM   15  S3    D T 401      10.216  17.115  -2.069  1.00 63.44    -0.066 SA
ENDBRANCH  10  11
ENDBRANCH   9  10
ENDBRANCH   7   9
ENDBRANCH   5   6
BRANCH   5  16
HETATM   16  C26   D T 401       6.204  13.927   1.698  1.00 59.99     0.053 C 
BRANCH  16  17
HETATM   17  C28   D T 401       6.016  12.661   2.527  1.00 61.27    -0.020 A 
HETATM   18  C31   D T 401       7.130  11.915   2.952  1.00 62.70    -0.004 A 
HETATM   19  C32   D T 401       6.977  10.742   3.719  1.00 62.25    -0.000 A 
HETATM   20  C33   D T 401       5.707  10.297   4.086  1.00 60.89    -0.000 A 
HETATM   21  C34   D T 401       4.591  11.028   3.670  1.00 61.83    -0.000 A 
HETATM   22  C35   D T 401       4.740  12.202   2.890  1.00 61.69    -0.004 A 
ENDBRANCH  16  17
ENDBRANCH   5  16
ENDBRANCH   3   5
ENDBRANCH   2   3
ENDBRANCH   1   2
BRANCH   1  23
HETATM   23  C44   D T 401       2.371  13.333  -1.215  1.00 61.03     0.051 C 
BRANCH  23  24
HETATM   24  C45   D T 401       1.188  13.404  -0.255  1.00 62.14    -0.020 A 
HETATM   25  C48   D T 401       1.507  13.551   1.094  1.00 62.95    -0.004 A 
HETATM   26  C49   D T 401       0.521  13.665   2.086  1.00 63.23    -0.000 A 
HETATM   27  C50   D T 401      -0.823  13.641   1.722  1.00 64.66    -0.000 A 
HETATM   28  C51   D T 401      -1.163  13.497   0.369  1.00 64.50    -0.000 A 
HETATM   29  C52   D T 401      -0.172  13.386  -0.620  1.00 63.39    -0.004 A 
ENDBRANCH  23  24
ENDBRANCH   1  23
BRANCH   1  30
HETATM   30  N58   D T 401       3.918  15.030  -1.699  1.00 60.63    -0.238 NA
HETATM   31  C18   D T 401       4.574  16.164  -1.519  1.00 62.24     0.274 C 
HETATM   32  O61   D T 401       5.173  16.555  -0.517  1.00 61.50    -0.268 OA
BRANCH  31  33
HETATM   33  C19   D T 401       4.479  16.997  -2.752  1.00 64.75     0.188 C 
BRANCH  33  34
HETATM   34  N20   D T 401       4.661  16.150  -3.913  1.00 65.69    -0.211 NA
HETATM   35  C21   D T 401       5.852  15.976  -4.425  1.00 66.79     0.343 C 
HETATM   36  N74   D T 401       5.979  15.842  -5.734  1.00 71.41    -0.294 N 
HETATM   37  O76   D T 401       6.837  16.088  -3.744  1.00 67.85    -0.245 OA
HETATM   38  C95   D T 401       5.119  16.498  -6.724  1.00 70.78     0.131 C 
BRANCH  36  39
HETATM   39  C75   D T 401       7.064  15.059  -6.302  1.00 74.33     0.152 C 
BRANCH  39  40
HETATM   40  C77   D T 401       8.112  16.030  -6.737  1.00 76.44     0.088 A 
HETATM   41  C80   D T 401       7.942  17.419  -6.758  1.00 78.25     0.053 A 
HETATM   42  S81   D T 401       9.395  18.175  -7.311  1.00 82.00    -0.070 SA
HETATM   43  C82   D T 401      10.195  16.633  -7.493  1.00 80.73     0.088 A 
HETATM   44  N83   D T 401       9.356  15.616  -7.136  1.00 78.96    -0.245 NA
BRANCH  43  45
HETATM   45  C85   D T 401      11.602  16.630  -7.973  1.00 81.61     0.047 C 
HETATM   46  C86   D T 401      12.332  15.342  -7.571  1.00 81.16     0.007 C 
HETATM   47  C90   D T 401      12.308  17.898  -7.462  1.00 82.31     0.007 C 
ENDBRANCH  43  45
ENDBRANCH  39  40
ENDBRANCH  36  39
ENDBRANCH  33  34
BRANCH  33  48
HETATM   48  C62   D T 401       3.108  17.696  -2.852  1.00 64.68     0.032 C 
HETATM   49  C64   D T 401       2.814  18.546  -1.628  1.00 64.29     0.003 C 
HETATM   50  C68   D T 401       2.976  18.519  -4.131  1.00 63.77     0.003 C 
ENDBRANCH  33  48
ENDBRANCH  31  33
ENDBRANCH   1  30
TORSDOF 18
ENDMDL
MODEL 5
REMARK VINA RESULT:    -9.075      3.274      9.027
REMARK INTER + INTRA:         -21.253
REMARK INTER:                 -17.480
REMARK INTRA:                  -3.773
REMARK UNBOUND:                -2.630
REMARK  18 active torsions:
REMARK  status: ('A' for Active; 'I' for Inactive)
REMARK    1  A    between atoms: C2_2  and  C6_6 
REMARK    2  A    between atoms: C6_6  and  O7_7 
REMARK    3  A    between atoms: O7_7  and  C10_8 
REMARK       I    between atoms: C10_8  and  N11_10 
REMARK    4  A    between atoms: N11_10  and  C12_11 
REMARK    5  A    between atoms: C12_11  and  C13_12 
REMARK    6  A    between atoms: C12_11  and  C26_15 
REMARK    7  A    between atoms: C13_12  and  C14_13 
REMARK    8  A    between atoms: C14_13  and  C15_14 
REMARK    9  A    between atoms: C15_14  and  C44_23 
REMARK   10  A    between atoms: C15_14  and  N58_30 
REMARK   11  A    between atoms: C26_15  and  C28_16 
REMARK   12  A    between atoms: C44_23  and  C45_24 
REMARK       I    between atoms: N58_30  and  C18_33 
REMARK   13  A    between atoms: N20_31  and  C19_32 
REMARK       I    between atoms: N20_31  and  C21_38 
REMARK   14  A    between atoms: C19_32  and  C18_33 
REMARK   15  A    between atoms: C19_32  and  C62_35 
REMARK       I    between atoms: C21_38  and  N74_39 
REMARK   16  A    between atoms: N74_39  and  C75_40 
REMARK   17  A    between atoms: C75_40  and  C77_42 
REMARK   18  A    between atoms: C82_45  and  C85_47 
ROOT
HETATM    1  C15   D T 401       6.659  12.978   1.236  1.00 59.81     0.113 C 
ENDROOT
BRANCH   1   2
HETATM    2  C14   D T 401       6.545  14.228   0.353  1.00 58.93     0.060 C 
BRANCH   2   3
HETATM    3  C13   D T 401       6.922  14.068  -1.139  1.00 59.07     0.177 C 
HETATM    4  O41   D T 401       7.815  15.120  -1.484  1.00 58.43    -0.221 OA
BRANCH   3   5
HETATM    5  C12   D T 401       5.745  14.112  -2.117  1.00 59.52     0.143 C 
BRANCH   5   6
HETATM    6  N11   D T 401       6.300  14.207  -3.459  1.00 58.37    -0.211 NA
HETATM    7  C10   D T 401       5.882  15.177  -4.252  1.00 59.08     0.384 C 
HETATM    8  O24   D T 401       4.972  15.928  -3.902  1.00 59.19    -0.236 OA
BRANCH   7   9
HETATM    9  O7    D T 401       6.519  15.376  -5.546  1.00 58.33    -0.278 OA
BRANCH   9  10
HETATM   10  C6    D T 401       5.728  15.963  -6.561  1.00 59.85     0.188 C 
BRANCH  10  11
HETATM   11  C2    D T 401       6.406  17.227  -6.978  1.00 62.87     0.058 A 
HETATM   12  C1    D T 401       7.427  17.522  -7.875  1.00 63.59     0.104 A 
HETATM   13  N5    D T 401       7.719  18.871  -7.871  1.00 65.21    -0.235 NA
HETATM   14  C4    D T 401       6.990  19.655  -7.023  1.00 64.03     0.134 A 
HETATM   15  S3    D T 401       5.879  18.660  -6.155  1.00 63.44    -0.066 SA
ENDBRANCH  10  11
ENDBRANCH   9  10
ENDBRANCH   7   9
ENDBRANCH   5   6
BRANCH   5  16
HETATM   16  C26   D T 401       4.742  12.942  -2.024  1.00 59.99     0.053 C 
BRANCH  16  17
HETATM   17  C28   D T 401       3.418  13.375  -1.405  1.00 61.27    -0.020 A 
HETATM   18  C31   D T 401       2.919  14.672  -1.625  1.00 62.70    -0.004 A 
HETATM   19  C32   D T 401       1.697  15.093  -1.062  1.00 62.25    -0.000 A 
HETATM   20  C33   D T 401       0.943  14.220  -0.276  1.00 60.89    -0.000 A 
HETATM   21  C34   D T 401       1.427  12.929  -0.048  1.00 61.83    -0.000 A 
HETATM   22  C35   D T 401       2.660  12.507  -0.605  1.00 61.69    -0.004 A 
ENDBRANCH  16  17
ENDBRANCH   5  16
ENDBRANCH   3   5
ENDBRANCH   2   3
ENDBRANCH   1   2
BRANCH   1  23
HETATM   23  C44   D T 401       5.833  13.159   2.522  1.00 61.03     0.051 C 
BRANCH  23  24
HETATM   24  C45   D T 401       5.034  11.947   2.991  1.00 62.14    -0.020 A 
HETATM   25  C48   D T 401       3.716  11.877   2.542  1.00 62.95    -0.004 A 
HETATM   26  C49   D T 401       2.873  10.802   2.864  1.00 63.23    -0.000 A 
HETATM   27  C50   D T 401       3.361   9.761   3.649  1.00 64.66    -0.000 A 
HETATM   28  C51   D T 401       4.686   9.812   4.107  1.00 64.50    -0.000 A 
HETATM   29  C52   D T 401       5.526  10.889   3.779  1.00 63.39    -0.004 A 
ENDBRANCH  23  24
ENDBRANCH   1  23
BRANCH   1  30
HETATM   30  N58   D T 401       7.996  12.748   1.711  1.00 60.63    -0.238 NA
HETATM   31  C18   D T 401       8.713  11.642   1.610  1.00 62.24     0.274 C 
HETATM   32  O61   D T 401       8.426  10.589   1.042  1.00 61.50    -0.268 OA
BRANCH  31  33
HETATM   33  C19   D T 401      10.001  11.813   2.341  1.00 64.75     0.188 C 
BRANCH  33  34
HETATM   34  N20   D T 401      10.709  12.953   1.797  1.00 65.69    -0.211 NA
HETATM   35  C21   D T 401      11.791  12.782   1.082  1.00 66.79     0.343 C 
HETATM   36  N74   D T 401      12.768  13.668   1.166  1.00 71.41    -0.294 N 
HETATM   37  O76   D T 401      11.970  11.760   0.472  1.00 67.85    -0.245 OA
HETATM   38  C95   D T 401      13.105  14.421   2.379  1.00 70.78     0.131 C 
BRANCH  36  39
HETATM   39  C75   D T 401      13.651  13.915   0.038  1.00 74.33     0.152 C 
BRANCH  39  40
HETATM   40  C77   D T 401      12.845  14.648  -0.985  1.00 76.44     0.088 A 
HETATM   41  C80   D T 401      11.954  15.688  -0.691  1.00 78.25     0.053 A 
HETATM   42  S81   D T 401      11.240  16.271  -2.153  1.00 82.00    -0.070 SA
HETATM   43  C82   D T 401      12.146  15.130  -3.117  1.00 80.73     0.088 A 
HETATM   44  N83   D T 401      12.944  14.361  -2.321  1.00 78.96    -0.245 NA
BRANCH  43  45
HETATM   45  C85   D T 401      11.949  15.153  -4.590  1.00 81.61     0.047 C 
HETATM   46  C86   D T 401      10.468  14.999  -4.963  1.00 81.16     0.007 C 
HETATM   47  C90   D T 401      12.839  14.076  -5.233  1.00 82.31     0.007 C 
ENDBRANCH  43  45
ENDBRANCH  39  40
ENDBRANCH  36  39
ENDBRANCH  33  34
BRANCH  33  48
HETATM   48  C62   D T 401       9.765  12.042   3.847  1.00 64.68     0.032 C 
HETATM   49  C64   D T 401       9.115  10.839   4.509  1.00 64.29     0.003 C 
HETATM   50  C68   D T 401      11.048  12.437   4.575  1.00 63.77     0.003 C 
ENDBRANCH  33  48
ENDBRANCH  31  33
ENDBRANCH   1  30
TORSDOF 18
ENDMDL
MODEL 6
REMARK VINA RESULT:    -8.984      4.164      5.684
REMARK INTER + INTRA:         -21.068
REMARK INTER:                 -17.780
REMARK INTRA:                  -3.288
REMARK UNBOUND:                -2.630
REMARK  18 active torsions:
REMARK  status: ('A' for Active; 'I' for Inactive)
REMARK    1  A    between atoms: C2_2  and  C6_6 
REMARK    2  A    between atoms: C6_6  and  O7_7 
REMARK    3  A    between atoms: O7_7  and  C10_8 
REMARK       I    between atoms: C10_8  and  N11_10 
REMARK    4  A    between atoms: N11_10  and  C12_11 
REMARK    5  A    between atoms: C12_11  and  C13_12 
REMARK    6  A    between atoms: C12_11  and  C26_15 
REMARK    7  A    between atoms: C13_12  and  C14_13 
REMARK    8  A    between atoms: C14_13  and  C15_14 
REMARK    9  A    between atoms: C15_14  and  C44_23 
REMARK   10  A    between atoms: C15_14  and  N58_30 
REMARK   11  A    between atoms: C26_15  and  C28_16 
REMARK   12  A    between atoms: C44_23  and  C45_24 
REMARK       I    between atoms: N58_30  and  C18_33 
REMARK   13  A    between atoms: N20_31  and  C19_32 
REMARK       I    between atoms: N20_31  and  C21_38 
REMARK   14  A    between atoms: C19_32  and  C18_33 
REMARK   15  A    between atoms: C19_32  and  C62_35 
REMARK       I    between atoms: C21_38  and  N74_39 
REMARK   16  A    between atoms: N74_39  and  C75_40 
REMARK   17  A    between atoms: C75_40  and  C77_42 
REMARK   18  A    between atoms: C82_45  and  C85_47 
ROOT
HETATM    1  C15   D T 401       6.122  13.592  -0.962  1.00 59.81     0.113 C 
ENDROOT
BRANCH   1   2
HETATM    2  C14   D T 401       7.018  12.558  -0.267  1.00 58.93     0.060 C 
BRANCH   2   3
HETATM    3  C13   D T 401       7.526  12.913   1.150  1.00 59.07     0.177 C 
HETATM    4  O41   D T 401       8.948  12.969   1.109  1.00 58.43    -0.221 OA
BRANCH   3   5
HETATM    5  C12   D T 401       7.129  11.927   2.252  1.00 59.52     0.143 C 
BRANCH   5   6
HETATM    6  N11   D T 401       8.341  11.571   2.974  1.00 58.37    -0.211 NA
HETATM    7  C10   D T 401       8.660  10.294   3.088  1.00 59.08     0.384 C 
HETATM    8  O24   D T 401       7.901   9.416   2.679  1.00 59.19    -0.236 OA
BRANCH   7   9
HETATM    9  O7    D T 401       9.935   9.920   3.684  1.00 58.33    -0.278 OA
BRANCH   9  10
HETATM   10  C6    D T 401       9.882   9.093   4.832  1.00 59.85     0.188 C 
BRANCH  10  11
HETATM   11  C2    D T 401      10.976   9.534   5.748  1.00 62.87     0.058 A 
HETATM   12  C1    D T 401      11.557   8.987   6.888  1.00 63.59     0.104 A 
HETATM   13  N5    D T 401      12.531   9.823   7.398  1.00 65.21    -0.235 NA
HETATM   14  C4    D T 401      12.749  10.993   6.730  1.00 64.03     0.134 A 
HETATM   15  S3    D T 401      11.667  11.084   5.389  1.00 63.44    -0.066 SA
ENDBRANCH  10  11
ENDBRANCH   9  10
ENDBRANCH   7   9
ENDBRANCH   5   6
BRANCH   5  16
HETATM   16  C26   D T 401       6.035  12.408   3.229  1.00 59.99     0.053 C 
BRANCH  16  17
HETATM   17  C28   D T 401       4.759  11.582   3.106  1.00 61.27    -0.020 A 
HETATM   18  C31   D T 401       4.596  10.406   3.860  1.00 62.70    -0.004 A 
HETATM   19  C32   D T 401       3.425   9.628   3.761  1.00 62.25    -0.000 A 
HETATM   20  C33   D T 401       2.386  10.017   2.913  1.00 60.89    -0.000 A 
HETATM   21  C34   D T 401       2.535  11.183   2.158  1.00 61.83    -0.000 A 
HETATM   22  C35   D T 401       3.715  11.962   2.248  1.00 61.69    -0.004 A 
ENDBRANCH  16  17
ENDBRANCH   5  16
ENDBRANCH   3   5
ENDBRANCH   2   3
ENDBRANCH   1   2
BRANCH   1  23
HETATM   23  C44   D T 401       4.931  12.892  -1.641  1.00 61.03     0.051 C 
BRANCH  23  24
HETATM   24  C45   D T 401       3.582  13.595  -1.537  1.00 62.14    -0.020 A 
HETATM   25  C48   D T 401       2.521  12.812  -1.085  1.00 62.95    -0.004 A 
HETATM   26  C49   D T 401       1.230  13.334  -0.907  1.00 63.23    -0.000 A 
HETATM   27  C50   D T 401       0.992  14.679  -1.178  1.00 64.66    -0.000 A 
HETATM   28  C51   D T 401       2.049  15.483  -1.630  1.00 64.50    -0.000 A 
HETATM   29  C52   D T 401       3.339  14.956  -1.804  1.00 63.39    -0.004 A 
ENDBRANCH  23  24
ENDBRANCH   1  23
BRANCH   1  30
HETATM   30  N58   D T 401       6.786  14.273  -2.039  1.00 60.63    -0.238 NA
HETATM   31  C18   D T 401       7.043  15.566  -2.145  1.00 62.24     0.274 C 
HETATM   32  O61   D T 401       6.829  16.462  -1.327  1.00 61.50    -0.268 OA
BRANCH  31  33
HETATM   33  C19   D T 401       7.645  15.849  -3.479  1.00 64.75     0.188 C 
BRANCH  33  34
HETATM   34  N20   D T 401       9.015  15.378  -3.492  1.00 65.69    -0.211 NA
HETATM   35  C21   D T 401      10.008  16.229  -3.507  1.00 66.79     0.343 C 
HETATM   36  N74   D T 401      11.107  15.927  -4.177  1.00 71.41    -0.294 N 
HETATM   37  O76   D T 401       9.877  17.335  -3.052  1.00 67.85    -0.245 OA
HETATM   38  C95   D T 401      11.138  15.126  -5.405  1.00 70.78     0.131 C 
BRANCH  36  39
HETATM   39  C75   D T 401      12.400  16.445  -3.761  1.00 74.33     0.152 C 
BRANCH  39  40
HETATM   40  C77   D T 401      13.208  15.272  -3.310  1.00 76.44     0.088 A 
HETATM   41  C80   D T 401      12.930  14.515  -2.166  1.00 78.25     0.053 A 
HETATM   42  S81   D T 401      14.093  13.245  -2.014  1.00 82.00    -0.070 SA
HETATM   43  C82   D T 401      14.913  13.744  -3.473  1.00 80.73     0.088 A 
HETATM   44  N83   D T 401      14.294  14.831  -4.020  1.00 78.96    -0.245 NA
BRANCH  43  45
HETATM   45  C85   D T 401      16.098  12.960  -3.909  1.00 81.61     0.047 C 
HETATM   46  C86   D T 401      16.667  12.115  -2.761  1.00 81.16     0.007 C 
HETATM   47  C90   D T 401      17.139  13.917  -4.514  1.00 82.31     0.007 C 
ENDBRANCH  43  45
ENDBRANCH  39  40
ENDBRANCH  36  39
ENDBRANCH  33  34
BRANCH  33  48
HETATM   48  C62   D T 401       6.863  15.148  -4.607  1.00 64.68     0.032 C 
HETATM   49  C64   D T 401       5.473  15.735  -4.784  1.00 64.29     0.003 C 
HETATM   50  C68   D T 401       7.629  15.156  -5.928  1.00 63.77     0.003 C 
ENDBRANCH  33  48
ENDBRANCH  31  33
ENDBRANCH   1  30
TORSDOF 18
ENDMDL
MODEL 7
REMARK VINA RESULT:    -8.764      3.476      9.078
REMARK INTER + INTRA:         -20.616
REMARK INTER:                 -15.775
REMARK INTRA:                  -4.841
REMARK UNBOUND:                -2.630
REMARK  18 active torsions:
REMARK  status: ('A' for Active; 'I' for Inactive)
REMARK    1  A    between atoms: C2_2  and  C6_6 
REMARK    2  A    between atoms: C6_6  and  O7_7 
REMARK    3  A    between atoms: O7_7  and  C10_8 
REMARK       I    between atoms: C10_8  and  N11_10 
REMARK    4  A    between atoms: N11_10  and  C12_11 
REMARK    5  A    between atoms: C12_11  and  C13_12 
REMARK    6  A    between atoms: C12_11  and  C26_15 
REMARK    7  A    between atoms: C13_12  and  C14_13 
REMARK    8  A    between atoms: C14_13  and  C15_14 
REMARK    9  A    between atoms: C15_14  and  C44_23 
REMARK   10  A    between atoms: C15_14  and  N58_30 
REMARK   11  A    between atoms: C26_15  and  C28_16 
REMARK   12  A    between atoms: C44_23  and  C45_24 
REMARK       I    between atoms: N58_30  and  C18_33 
REMARK   13  A    between atoms: N20_31  and  C19_32 
REMARK       I    between atoms: N20_31  and  C21_38 
REMARK   14  A    between atoms: C19_32  and  C18_33 
REMARK   15  A    between atoms: C19_32  and  C62_35 
REMARK       I    between atoms: C21_38  and  N74_39 
REMARK   16  A    between atoms: N74_39  and  C75_40 
REMARK   17  A    between atoms: C75_40  and  C77_42 
REMARK   18  A    between atoms: C82_45  and  C85_47 
ROOT
HETATM    1  C15   D T 401       6.575  12.923   1.533  1.00 59.81     0.113 C 
ENDROOT
BRANCH   1   2
HETATM    2  C14   D T 401       6.502  14.241   0.751  1.00 58.93     0.060 C 
BRANCH   2   3
HETATM    3  C13   D T 401       7.212  14.280  -0.623  1.00 59.07     0.177 C 
HETATM    4  O41   D T 401       8.413  15.029  -0.478  1.00 58.43    -0.221 OA
BRANCH   3   5
HETATM    5  C12   D T 401       6.401  14.910  -1.759  1.00 59.52     0.143 C 
BRANCH   5   6
HETATM    6  N11   D T 401       5.004  14.900  -1.352  1.00 58.37    -0.211 NA
HETATM    7  C10   D T 401       4.118  14.317  -2.140  1.00 59.08     0.384 C 
HETATM    8  O24   D T 401       4.447  13.877  -3.240  1.00 59.19    -0.236 OA
BRANCH   7   9
HETATM    9  O7    D T 401       2.740  14.173  -1.692  1.00 58.33    -0.278 OA
BRANCH   9  10
HETATM   10  C6    D T 401       2.545  13.859  -0.326  1.00 59.85     0.188 C 
BRANCH  10  11
HETATM   11  C2    D T 401       1.074  13.709  -0.110  1.00 62.87     0.058 A 
HETATM   12  C1    D T 401      -0.018  13.591  -0.963  1.00 63.59     0.104 A 
HETATM   13  N5    D T 401      -1.198  13.511  -0.251  1.00 65.21    -0.235 NA
HETATM   14  C4    D T 401      -1.100  13.560   1.110  1.00 64.03     0.134 A 
HETATM   15  S3    D T 401       0.560  13.737   1.546  1.00 63.44    -0.066 SA
ENDBRANCH  10  11
ENDBRANCH   9  10
ENDBRANCH   7   9
ENDBRANCH   5   6
BRANCH   5  16
HETATM   16  C26   D T 401       6.832  16.328  -2.192  1.00 59.99     0.053 C 
BRANCH  16  17
HETATM   17  C28   D T 401       7.297  16.362  -3.644  1.00 61.27    -0.020 A 
HETATM   18  C31   D T 401       7.473  15.167  -4.364  1.00 62.70    -0.004 A 
HETATM   19  C32   D T 401       7.903  15.177  -5.707  1.00 62.25    -0.000 A 
HETATM   20  C33   D T 401       8.155  16.384  -6.360  1.00 60.89    -0.000 A 
HETATM   21  C34   D T 401       7.985  17.579  -5.657  1.00 61.83    -0.000 A 
HETATM   22  C35   D T 401       7.563  17.572  -4.304  1.00 61.69    -0.004 A 
ENDBRANCH  16  17
ENDBRANCH   5  16
ENDBRANCH   3   5
ENDBRANCH   2   3
ENDBRANCH   1   2
BRANCH   1  23
HETATM   23  C44   D T 401       5.718  13.012   2.808  1.00 61.03     0.051 C 
BRANCH  23  24
HETATM   24  C45   D T 401       4.864  11.793   3.139  1.00 62.14    -0.020 A 
HETATM   25  C48   D T 401       3.584  11.780   2.587  1.00 62.95    -0.004 A 
HETATM   26  C49   D T 401       2.700  10.707   2.777  1.00 63.23    -0.000 A 
HETATM   27  C50   D T 401       3.107   9.610   3.531  1.00 64.66    -0.000 A 
HETATM   28  C51   D T 401       4.393   9.603   4.091  1.00 64.50    -0.000 A 
HETATM   29  C52   D T 401       5.275  10.679   3.895  1.00 63.39    -0.004 A 
ENDBRANCH  23  24
ENDBRANCH   1  23
BRANCH   1  30
HETATM   30  N58   D T 401       7.896  12.634   2.021  1.00 60.63    -0.238 NA
HETATM   31  C18   D T 401       8.625  11.554   1.797  1.00 62.24     0.274 C 
HETATM   32  O61   D T 401       8.367  10.587   1.080  1.00 61.50    -0.268 OA
BRANCH  31  33
HETATM   33  C19   D T 401       9.885  11.628   2.591  1.00 64.75     0.188 C 
BRANCH  33  34
HETATM   34  N20   D T 401      10.580  12.857   2.268  1.00 65.69    -0.211 NA
HETATM   35  C21   D T 401      11.615  12.841   1.470  1.00 66.79     0.343 C 
HETATM   36  N74   D T 401      12.611  13.683   1.687  1.00 71.41    -0.294 N 
HETATM   37  O76   D T 401      11.741  11.978   0.641  1.00 67.85    -0.245 OA
HETATM   38  C95   D T 401      13.030  14.151   3.013  1.00 70.78     0.131 C 
BRANCH  36  39
HETATM   39  C75   D T 401      13.431  14.169   0.590  1.00 74.33     0.152 C 
BRANCH  39  40
HETATM   40  C77   D T 401      12.610  15.176  -0.147  1.00 76.44     0.088 A 
HETATM   41  C80   D T 401      12.159  16.382   0.403  1.00 78.25     0.053 A 
HETATM   42  S81   D T 401      11.259  17.261  -0.783  1.00 82.00    -0.070 SA
HETATM   43  C82   D T 401      11.510  16.013  -1.980  1.00 80.73     0.088 A 
HETATM   44  N83   D T 401      12.253  14.993  -1.457  1.00 78.96    -0.245 NA
BRANCH  43  45
HETATM   45  C85   D T 401      10.928  16.219  -3.332  1.00 81.61     0.047 C 
HETATM   46  C86   D T 401      11.327  15.093  -4.294  1.00 81.16     0.007 C 
HETATM   47  C90   D T 401      11.333  17.611  -3.847  1.00 82.31     0.007 C 
ENDBRANCH  43  45
ENDBRANCH  39  40
ENDBRANCH  36  39
ENDBRANCH  33  34
BRANCH  33  48
HETATM   48  C62   D T 401       9.595  11.598   4.105  1.00 64.68     0.032 C 
HETATM   49  C64   D T 401       8.985  10.278   4.541  1.00 64.29     0.003 C 
HETATM   50  C68   D T 401      10.836  11.924   4.933  1.00 63.77     0.003 C 
ENDBRANCH  33  48
ENDBRANCH  31  33
ENDBRANCH   1  30
TORSDOF 18
ENDMDL
MODEL 8
REMARK VINA RESULT:    -8.656      3.652      5.720
REMARK INTER + INTRA:         -20.395
REMARK INTER:                 -17.752
REMARK INTRA:                  -2.643
REMARK UNBOUND:                -2.630
REMARK  18 active torsions:
REMARK  status: ('A' for Active; 'I' for Inactive)
REMARK    1  A    between atoms: C2_2  and  C6_6 
REMARK    2  A    between atoms: C6_6  and  O7_7 
REMARK    3  A    between atoms: O7_7  and  C10_8 
REMARK       I    between atoms: C10_8  and  N11_10 
REMARK    4  A    between atoms: N11_10  and  C12_11 
REMARK    5  A    between atoms: C12_11  and  C13_12 
REMARK    6  A    between atoms: C12_11  and  C26_15 
REMARK    7  A    between atoms: C13_12  and  C14_13 
REMARK    8  A    between atoms: C14_13  and  C15_14 
REMARK    9  A    between atoms: C15_14  and  C44_23 
REMARK   10  A    between atoms: C15_14  and  N58_30 
REMARK   11  A    between atoms: C26_15  and  C28_16 
REMARK   12  A    between atoms: C44_23  and  C45_24 
REMARK       I    between atoms: N58_30  and  C18_33 
REMARK   13  A    between atoms: N20_31  and  C19_32 
REMARK       I    between atoms: N20_31  and  C21_38 
REMARK   14  A    between atoms: C19_32  and  C18_33 
REMARK   15  A    between atoms: C19_32  and  C62_35 
REMARK       I    between atoms: C21_38  and  N74_39 
REMARK   16  A    between atoms: N74_39  and  C75_40 
REMARK   17  A    between atoms: C75_40  and  C77_42 
REMARK   18  A    between atoms: C82_45  and  C85_47 
ROOT
HETATM    1  C15   D T 401       5.331  15.896  -1.957  1.00 59.81     0.113 C 
ENDROOT
BRANCH   1   2
HETATM    2  C14   D T 401       5.639  14.470  -1.478  1.00 58.93     0.060 C 
BRANCH   2   3
HETATM    3  C13   D T 401       5.220  14.112  -0.034  1.00 59.07     0.177 C 
HETATM    4  O41   D T 401       6.109  14.771   0.861  1.00 58.43    -0.221 OA
BRANCH   3   5
HETATM    5  C12   D T 401       5.242  12.617   0.301  1.00 59.52     0.143 C 
BRANCH   5   6
HETATM    6  N11   D T 401       5.501  12.496   1.727  1.00 58.37    -0.211 NA
HETATM    7  C10   D T 401       6.610  11.897   2.122  1.00 59.08     0.384 C 
HETATM    8  O24   D T 401       7.364  11.365   1.307  1.00 59.19    -0.236 OA
BRANCH   7   9
HETATM    9  O7    D T 401       6.958  11.884   3.536  1.00 58.33    -0.278 OA
BRANCH   9  10
HETATM   10  C6    D T 401       7.409  10.652   4.069  1.00 59.85     0.188 C 
BRANCH  10  11
HETATM   11  C2    D T 401       8.869  10.797   4.349  1.00 62.87     0.058 A 
HETATM   12  C1    D T 401       9.817  11.767   4.041  1.00 63.59     0.104 A 
HETATM   13  N5    D T 401      11.066  11.407   4.509  1.00 65.21    -0.235 NA
HETATM   14  C4    D T 401      11.156  10.213   5.164  1.00 64.03     0.134 A 
HETATM   15  S3    D T 401       9.599   9.469   5.191  1.00 63.44    -0.066 SA
ENDBRANCH  10  11
ENDBRANCH   9  10
ENDBRANCH   7   9
ENDBRANCH   5   6
BRANCH   5  16
HETATM   16  C26   D T 401       3.983  11.817  -0.095  1.00 59.99     0.053 C 
BRANCH  16  17
HETATM   17  C28   D T 401       2.700  12.547   0.290  1.00 61.27    -0.020 A 
HETATM   18  C31   D T 401       1.973  13.267  -0.676  1.00 62.70    -0.004 A 
HETATM   19  C32   D T 401       0.786  13.950  -0.342  1.00 62.25    -0.000 A 
HETATM   20  C33   D T 401       0.295  13.917   0.964  1.00 60.89    -0.000 A 
HETATM   21  C34   D T 401       1.007  13.206   1.934  1.00 61.83    -0.000 A 
HETATM   22  C35   D T 401       2.207  12.528   1.603  1.00 61.69    -0.004 A 
ENDBRANCH  16  17
ENDBRANCH   5  16
ENDBRANCH   3   5
ENDBRANCH   2   3
ENDBRANCH   1   2
BRANCH   1  23
HETATM   23  C44   D T 401       3.862  16.002  -2.402  1.00 61.03     0.051 C 
BRANCH  23  24
HETATM   24  C45   D T 401       3.218  17.380  -2.292  1.00 62.14    -0.020 A 
HETATM   25  C48   D T 401       3.303  17.994  -1.044  1.00 62.95    -0.004 A 
HETATM   26  C49   D T 401       2.787  19.277  -0.805  1.00 63.23    -0.000 A 
HETATM   27  C50   D T 401       2.176  19.973  -1.845  1.00 64.66    -0.000 A 
HETATM   28  C51   D T 401       2.086  19.374  -3.110  1.00 64.50    -0.000 A 
HETATM   29  C52   D T 401       2.606  18.090  -3.343  1.00 63.39    -0.004 A 
ENDBRANCH  23  24
ENDBRANCH   1  23
BRANCH   1  30
HETATM   30  N58   D T 401       6.077  16.265  -3.129  1.00 60.63    -0.238 NA
HETATM   31  C18   D T 401       7.351  16.612  -3.204  1.00 62.24     0.274 C 
HETATM   32  O61   D T 401       8.194  16.640  -2.306  1.00 61.50    -0.268 OA
BRANCH  31  33
HETATM   33  C19   D T 401       7.676  17.025  -4.599  1.00 64.75     0.188 C 
BRANCH  33  34
HETATM   34  N20   D T 401       8.965  16.478  -4.968  1.00 65.69    -0.211 NA
HETATM   35  C21   D T 401       9.918  17.262  -5.400  1.00 66.79     0.343 C 
HETATM   36  N74   D T 401      10.749  16.818  -6.328  1.00 71.41    -0.294 N 
HETATM   37  O76   D T 401       9.955  18.421  -5.079  1.00 67.85    -0.245 OA
HETATM   38  C95   D T 401      10.383  15.874  -7.388  1.00 70.78     0.131 C 
BRANCH  36  39
HETATM   39  C75   D T 401      12.116  17.309  -6.402  1.00 74.33     0.152 C 
BRANCH  39  40
HETATM   40  C77   D T 401      12.861  16.672  -5.274  1.00 76.44     0.088 A 
HETATM   41  C80   D T 401      13.408  17.374  -4.193  1.00 78.25     0.053 A 
HETATM   42  S81   D T 401      14.172  16.266  -3.108  1.00 82.00    -0.070 SA
HETATM   43  C82   D T 401      13.741  14.901  -4.109  1.00 80.73     0.088 A 
HETATM   44  N83   D T 401      13.046  15.316  -5.208  1.00 78.96    -0.245 NA
BRANCH  43  45
HETATM   45  C85   D T 401      14.152  13.547  -3.653  1.00 81.61     0.047 C 
HETATM   46  C86   D T 401      13.790  13.314  -2.181  1.00 81.16     0.007 C 
HETATM   47  C90   D T 401      15.653  13.357  -3.933  1.00 82.31     0.007 C 
ENDBRANCH  43  45
ENDBRANCH  39  40
ENDBRANCH  36  39
ENDBRANCH  33  34
BRANCH  33  48
HETATM   48  C62   D T 401       6.613  16.520  -5.595  1.00 64.68     0.032 C 
HETATM   49  C64   D T 401       6.391  17.501  -6.733  1.00 64.29     0.003 C 
HETATM   50  C68   D T 401       6.945  15.130  -6.132  1.00 63.77     0.003 C 
ENDBRANCH  33  48
ENDBRANCH  31  33
ENDBRANCH   1  30
TORSDOF 18
ENDMDL
MODEL 9
REMARK VINA RESULT:    -8.635      2.075      2.886
REMARK INTER + INTRA:         -20.352
REMARK INTER:                 -17.116
REMARK INTRA:                  -3.236
REMARK UNBOUND:                -2.630
REMARK  18 active torsions:
REMARK  status: ('A' for Active; 'I' for Inactive)
REMARK    1  A    between atoms: C2_2  and  C6_6 
REMARK    2  A    between atoms: C6_6  and  O7_7 
REMARK    3  A    between atoms: O7_7  and  C10_8 
REMARK       I    between atoms: C10_8  and  N11_10 
REMARK    4  A    between atoms: N11_10  and  C12_11 
REMARK    5  A    between atoms: C12_11  and  C13_12 
REMARK    6  A    between atoms: C12_11  and  C26_15 
REMARK    7  A    between atoms: C13_12  and  C14_13 
REMARK    8  A    between atoms: C14_13  and  C15_14 
REMARK    9  A    between atoms: C15_14  and  C44_23 
REMARK   10  A    between atoms: C15_14  and  N58_30 
REMARK   11  A    between atoms: C26_15  and  C28_16 
REMARK   12  A    between atoms: C44_23  and  C45_24 
REMARK       I    between atoms: N58_30  and  C18_33 
REMARK   13  A    between atoms: N20_31  and  C19_32 
REMARK       I    between atoms: N20_31  and  C21_38 
REMARK   14  A    between atoms: C19_32  and  C18_33 
REMARK   15  A    between atoms: C19_32  and  C62_35 
REMARK       I    between atoms: C21_38  and  N74_39 
REMARK   16  A    between atoms: N74_39  and  C75_40 
REMARK   17  A    between atoms: C75_40  and  C77_42 
REMARK   18  A    between atoms: C82_45  and  C85_47 
ROOT
HETATM    1  C15   D T 401       3.863  15.204  -1.443  1.00 59.81     0.113 C 
ENDROOT
BRANCH   1   2
HETATM    2  C14   D T 401       4.126  13.711  -1.208  1.00 58.93     0.060 C 
BRANCH   2   3
HETATM    3  C13   D T 401       5.580  13.300  -0.875  1.00 59.07     0.177 C 
HETATM    4  O41   D T 401       5.971  12.281  -1.788  1.00 58.43    -0.221 OA
BRANCH   3   5
HETATM    5  C12   D T 401       5.800  12.768   0.544  1.00 59.52     0.143 C 
BRANCH   5   6
HETATM    6  N11   D T 401       7.123  13.197   0.968  1.00 58.37    -0.211 NA
HETATM    7  C10   D T 401       8.012  12.278   1.302  1.00 59.08     0.384 C 
HETATM    8  O24   D T 401       7.700  11.089   1.349  1.00 59.19    -0.236 OA
BRANCH   7   9
HETATM    9  O7    D T 401       9.382  12.673   1.597  1.00 58.33    -0.278 OA
BRANCH   9  10
HETATM   10  C6    D T 401      10.310  11.629   1.824  1.00 59.85     0.188 C 
BRANCH  10  11
HETATM   11  C2    D T 401      10.560  11.568   3.295  1.00 62.87     0.058 A 
HETATM   12  C1    D T 401      11.066  12.471   4.224  1.00 63.59     0.104 A 
HETATM   13  N5    D T 401      11.130  11.906   5.483  1.00 65.21    -0.235 NA
HETATM   14  C4    D T 401      10.706  10.613   5.598  1.00 64.03     0.134 A 
HETATM   15  S3    D T 401      10.212  10.044   4.045  1.00 63.44    -0.066 SA
ENDBRANCH  10  11
ENDBRANCH   9  10
ENDBRANCH   7   9
ENDBRANCH   5   6
BRANCH   5  16
HETATM   16  C26   D T 401       4.736  13.168   1.589  1.00 59.99     0.053 C 
BRANCH  16  17
HETATM   17  C28   D T 401       4.151  11.952   2.299  1.00 61.27    -0.020 A 
HETATM   18  C31   D T 401       4.846  11.344   3.361  1.00 62.70    -0.004 A 
HETATM   19  C32   D T 401       4.323  10.219   4.030  1.00 62.25    -0.000 A 
HETATM   20  C33   D T 401       3.087   9.686   3.659  1.00 60.89    -0.000 A 
HETATM   21  C34   D T 401       2.386  10.280   2.606  1.00 61.83    -0.000 A 
HETATM   22  C35   D T 401       2.915  11.405   1.925  1.00 61.69    -0.004 A 
ENDBRANCH  16  17
ENDBRANCH   5  16
ENDBRANCH   3   5
ENDBRANCH   2   3
ENDBRANCH   1   2
BRANCH   1  23
HETATM   23  C44   D T 401       2.356  15.454  -1.637  1.00 61.03     0.051 C 
BRANCH  23  24
HETATM   24  C45   D T 401       1.420  14.733  -0.673  1.00 62.14    -0.020 A 
HETATM   25  C48   D T 401       0.415  13.967  -1.260  1.00 62.95    -0.004 A 
HETATM   26  C49   D T 401      -0.498  13.221  -0.498  1.00 63.23    -0.000 A 
HETATM   27  C50   D T 401      -0.400  13.233   0.891  1.00 64.66    -0.000 A 
HETATM   28  C51   D T 401       0.608  13.995   1.500  1.00 64.50    -0.000 A 
HETATM   29  C52   D T 401       1.520  14.737   0.732  1.00 63.39    -0.004 A 
ENDBRANCH  23  24
ENDBRANCH   1  23
BRANCH   1  30
HETATM   30  N58   D T 401       4.456  15.692  -2.658  1.00 60.63    -0.238 NA
HETATM   31  C18   D T 401       5.329  16.675  -2.797  1.00 62.24     0.274 C 
HETATM   32  O61   D T 401       5.871  17.350  -1.922  1.00 61.50    -0.268 OA
BRANCH  31  33
HETATM   33  C19   D T 401       5.585  16.916  -4.246  1.00 64.75     0.188 C 
BRANCH  33  34
HETATM   34  N20   D T 401       6.899  17.505  -4.404  1.00 65.69    -0.211 NA
HETATM   35  C21   D T 401       7.118  18.394  -5.338  1.00 66.79     0.343 C 
HETATM   36  N74   D T 401       8.294  18.421  -5.941  1.00 71.41    -0.294 N 
HETATM   37  O76   D T 401       6.222  19.080  -5.756  1.00 67.85    -0.245 OA
HETATM   38  C95   D T 401       9.125  17.240  -6.195  1.00 70.78     0.131 C 
BRANCH  36  39
HETATM   39  C75   D T 401       8.830  19.663  -6.474  1.00 74.33     0.152 C 
BRANCH  39  40
HETATM   40  C77   D T 401       9.548  20.337  -5.350  1.00 76.44     0.088 A 
HETATM   41  C80   D T 401      10.643  19.790  -4.671  1.00 78.25     0.053 A 
HETATM   42  S81   D T 401      11.184  20.894  -3.456  1.00 82.00    -0.070 SA
HETATM   43  C82   D T 401       9.951  22.056  -3.883  1.00 80.73     0.088 A 
HETATM   44  N83   D T 401       9.186  21.583  -4.911  1.00 78.96    -0.245 NA
BRANCH  43  45
HETATM   45  C85   D T 401       9.907  23.334  -3.125  1.00 81.61     0.047 C 
HETATM   46  C86   D T 401       8.465  23.752  -2.811  1.00 81.16     0.007 C 
HETATM   47  C90   D T 401      10.681  24.409  -3.907  1.00 82.31     0.007 C 
ENDBRANCH  43  45
ENDBRANCH  39  40
ENDBRANCH  36  39
ENDBRANCH  33  34
BRANCH  33  48
HETATM   48  C62   D T 401       5.524  15.603  -5.052  1.00 64.68     0.032 C 
HETATM   49  C64   D T 401       5.196  15.849  -6.514  1.00 64.29     0.003 C 
HETATM   50  C68   D T 401       6.805  14.784  -4.912  1.00 63.77     0.003 C 
ENDBRANCH  33  48
ENDBRANCH  31  33
ENDBRANCH   1  30
TORSDOF 18
ENDMDL
