MODEL 1
REMARK VINA RESULT:      -8.4      0.000      0.000
REMARK  3 active torsions:
REMARK  status: ('A' for Active; 'I' for Inactive)
REMARK    1  A    between atoms: C5_5  and  C8_8 
REMARK    2  A    between atoms: C8_8  and  C14_14 
REMARK    3  A    between atoms: C17_17  and  C20_20 
ROOT
HETATM    1  C8    D T1480       7.419   5.213   6.732  1.00 24.84     0.042 C 
HETATM    2  C9    D T1480       8.404   5.918   5.773  1.00 24.83     0.046 C 
HETATM    3  C10   D T1480       9.593   5.054   5.412  1.00 24.63     0.291 C 
HETATM    4  N11   D T1480      10.310   4.847   6.698  1.00 23.69     0.339 N 
HETATM    5  C12   D T1480       9.482   3.956   7.557  1.00 25.57     0.291 C 
HETATM    6  C13   D T1480       8.214   4.695   7.942  1.00 27.98     0.046 C 
ENDROOT
BRANCH   1   7
HETATM    7  C5    D T1480       6.473   6.287   7.271  1.00 27.86    -0.019 A 
HETATM    8  C4    D T1480       5.461   5.963   8.173  1.00 28.73    -0.003 A 
HETATM    9  C3    D T1480       4.598   6.933   8.635  1.00 37.49     0.011 A 
HETATM   10  C2    D T1480       4.727   8.237   8.197  1.00 34.69     0.058 A 
HETATM   11 CL1    D T1480       3.635   9.456   8.766  1.00 50.48    -0.082 Cl
HETATM   12  C7    D T1480       5.715   8.561   7.279  1.00 40.09     0.011 A 
HETATM   13  C6    D T1480       6.576   7.590   6.810  1.00 30.28    -0.003 A 
ENDBRANCH   1   7
BRANCH   1  14
HETATM   14  C14   D T1480       6.639   4.112   5.982  1.00 24.09    -0.019 A 
HETATM   15  C15   D T1480       6.897   2.752   6.120  1.00 24.10    -0.004 A 
HETATM   16  C16   D T1480       6.164   1.818   5.401  1.00 25.21    -0.000 A 
HETATM   17  C17   D T1480       5.155   2.228   4.538  1.00 22.67     0.003 A 
HETATM   18  C18   D T1480       4.902   3.577   4.411  1.00 26.22    -0.000 A 
HETATM   19  C19   D T1480       5.625   4.503   5.122  1.00 25.71    -0.004 A 
BRANCH  17  20
HETATM   20  C20   D T1480       4.368   1.279   3.739  1.00 20.81     0.042 A 
HETATM   21  C21   D T1480       4.687   0.695   2.515  1.00 10.94     0.124 A 
HETATM   22  N22   D T1480       3.688  -0.094   2.070  1.00 19.16    -0.146 NA
HETATM   23  N23   D T1480       2.700  -0.002   3.006  1.00 25.24    -0.146 NA
HETATM   24  C24   D T1480       3.070   0.825   4.019  1.00 21.20     0.124 A 
ENDBRANCH  17  20
ENDBRANCH   1  14
TORSDOF 3
ENDMDL
MODEL 2
REMARK VINA RESULT:      -8.1      4.251      6.790
REMARK  3 active torsions:
REMARK  status: ('A' for Active; 'I' for Inactive)
REMARK    1  A    between atoms: C5_5  and  C8_8 
REMARK    2  A    between atoms: C8_8  and  C14_14 
REMARK    3  A    between atoms: C17_17  and  C20_20 
ROOT
HETATM    1  C8    D T1480       9.214   2.964   5.711  1.00 24.84     0.042 C 
HETATM    2  C9    D T1480      10.210   2.577   6.826  1.00 24.83     0.046 C 
HETATM    3  C10   D T1480      11.303   3.605   7.021  1.00 24.63     0.291 C 
HETATM    4  N11   D T1480      12.059   3.596   5.740  1.00 23.69     0.339 N 
HETATM    5  C12   D T1480      11.198   4.201   4.686  1.00 25.57     0.291 C 
HETATM    6  C13   D T1480      10.016   3.281   4.438  1.00 27.98     0.046 C 
ENDROOT
BRANCH   1   7
HETATM    7  C5    D T1480       8.389   1.716   5.395  1.00 27.86    -0.019 A 
HETATM    8  C4    D T1480       8.721   0.479   5.946  1.00 28.73    -0.003 A 
HETATM    9  C3    D T1480       7.988  -0.645   5.637  1.00 37.49     0.011 A 
HETATM   10  C2    D T1480       6.918  -0.554   4.766  1.00 34.69     0.058 A 
HETATM   11 CL1    D T1480       6.003  -1.969   4.365  1.00 50.48    -0.082 Cl
HETATM   12  C7    D T1480       6.599   0.668   4.194  1.00 40.09     0.011 A 
HETATM   13  C6    D T1480       7.337   1.794   4.497  1.00 30.28    -0.003 A 
ENDBRANCH   1   7
BRANCH   1  14
HETATM   14  C14   D T1480       8.309   4.123   6.182  1.00 24.09    -0.019 A 
HETATM   15  C15   D T1480       8.035   5.249   5.414  1.00 24.10    -0.004 A 
HETATM   16  C16   D T1480       7.224   6.261   5.909  1.00 25.21    -0.000 A 
HETATM   17  C17   D T1480       6.667   6.160   7.178  1.00 22.67     0.003 A 
HETATM   18  C18   D T1480       6.939   5.037   7.931  1.00 26.22    -0.000 A 
HETATM   19  C19   D T1480       7.741   4.035   7.443  1.00 25.71    -0.004 A 
BRANCH  17  20
HETATM   20  C20   D T1480       5.821   7.213   7.755  1.00 20.81     0.042 A 
HETATM   21  C21   D T1480       5.730   8.555   7.391  1.00 10.94     0.124 A 
HETATM   22  N22   D T1480       4.870   9.224   8.185  1.00 19.16    -0.146 NA
HETATM   23  N23   D T1480       4.415   8.310   9.090  1.00 25.24    -0.146 NA
HETATM   24  C24   D T1480       4.976   7.092   8.868  1.00 21.20     0.124 A 
ENDBRANCH  17  20
ENDBRANCH   1  14
TORSDOF 3
ENDMDL
MODEL 3
REMARK VINA RESULT:      -8.1      2.077      2.941
REMARK  3 active torsions:
REMARK  status: ('A' for Active; 'I' for Inactive)
REMARK    1  A    between atoms: C5_5  and  C8_8 
REMARK    2  A    between atoms: C8_8  and  C14_14 
REMARK    3  A    between atoms: C17_17  and  C20_20 
ROOT
HETATM    1  C8    D T1480       9.070   4.133   6.430  1.00 24.84     0.042 C 
HETATM    2  C9    D T1480       9.793   4.716   5.195  1.00 24.83     0.046 C 
HETATM    3  C10   D T1480      10.971   3.875   4.753  1.00 24.63     0.291 C 
HETATM    4  N11   D T1480      11.928   3.943   5.889  1.00 23.69     0.339 N 
HETATM    5  C12   D T1480      11.358   3.170   7.027  1.00 25.57     0.291 C 
HETATM    6  C13   D T1480      10.118   3.887   7.528  1.00 27.98     0.046 C 
ENDROOT
BRANCH   1   7
HETATM    7  C5    D T1480       8.144   5.227   6.962  1.00 27.86    -0.019 A 
HETATM    8  C4    D T1480       7.676   6.240   6.126  1.00 28.73    -0.003 A 
HETATM    9  C3    D T1480       6.861   7.235   6.620  1.00 37.49     0.011 A 
HETATM   10  C2    D T1480       6.509   7.239   7.956  1.00 34.69     0.058 A 
HETATM   11 CL1    D T1480       5.495   8.498   8.582  1.00 50.48    -0.082 Cl
HETATM   12  C7    D T1480       6.992   6.250   8.799  1.00 40.09     0.011 A 
HETATM   13  C6    D T1480       7.814   5.256   8.308  1.00 30.28    -0.003 A 
ENDBRANCH   1   7
BRANCH   1  14
HETATM   14  C14   D T1480       8.273   2.872   6.037  1.00 24.09    -0.019 A 
HETATM   15  C15   D T1480       6.940   2.894   5.642  1.00 24.10    -0.004 A 
HETATM   16  C16   D T1480       6.281   1.716   5.316  1.00 25.21    -0.000 A 
HETATM   17  C17   D T1480       6.946   0.498   5.373  1.00 22.67     0.003 A 
HETATM   18  C18   D T1480       8.269   0.485   5.760  1.00 26.22    -0.000 A 
HETATM   19  C19   D T1480       8.924   1.649   6.082  1.00 25.71    -0.004 A 
BRANCH  17  20
HETATM   20  C20   D T1480       6.286  -0.777   5.061  1.00 20.81     0.042 A 
HETATM   21  C21   D T1480       5.196  -1.373   5.692  1.00 10.94     0.124 A 
HETATM   22  N22   D T1480       4.903  -2.569   5.145  1.00 19.16    -0.146 NA
HETATM   23  N23   D T1480       5.828  -2.763   4.162  1.00 25.24    -0.146 NA
HETATM   24  C24   D T1480       6.684  -1.710   4.091  1.00 21.20     0.124 A 
ENDBRANCH  17  20
ENDBRANCH   1  14
TORSDOF 3
ENDMDL
MODEL 4
REMARK VINA RESULT:      -7.9      2.929      4.716
REMARK  3 active torsions:
REMARK  status: ('A' for Active; 'I' for Inactive)
REMARK    1  A    between atoms: C5_5  and  C8_8 
REMARK    2  A    between atoms: C8_8  and  C14_14 
REMARK    3  A    between atoms: C17_17  and  C20_20 
ROOT
HETATM    1  C8    D T1480       7.799   4.795   6.478  1.00 24.84     0.042 C 
HETATM    2  C9    D T1480       7.664   4.721   8.015  1.00 24.83     0.046 C 
HETATM    3  C10   D T1480       6.491   5.520   8.540  1.00 24.63     0.291 C 
HETATM    4  N11   D T1480       6.815   6.930   8.200  1.00 23.69     0.339 N 
HETATM    5  C12   D T1480       6.710   7.090   6.723  1.00 25.57     0.291 C 
HETATM    6  C13   D T1480       7.810   6.276   6.067  1.00 27.98     0.046 C 
ENDROOT
BRANCH   1   7
HETATM    7  C5    D T1480       9.182   4.245   6.124  1.00 27.86    -0.019 A 
HETATM    8  C4    D T1480       9.445   3.729   4.855  1.00 28.73    -0.003 A 
HETATM    9  C3    D T1480      10.686   3.213   4.553  1.00 37.49     0.011 A 
HETATM   10  C2    D T1480      11.679   3.195   5.514  1.00 34.69     0.058 A 
HETATM   11 CL1    D T1480      13.236   2.534   5.139  1.00 50.48    -0.082 Cl
HETATM   12  C7    D T1480      11.415   3.681   6.785  1.00 40.09     0.011 A 
HETATM   13  C6    D T1480      10.171   4.192   7.092  1.00 30.28    -0.003 A 
ENDBRANCH   1   7
BRANCH   1  14
HETATM   14  C14   D T1480       6.684   3.969   5.803  1.00 24.09    -0.019 A 
HETATM   15  C15   D T1480       5.689   4.523   5.003  1.00 24.10    -0.004 A 
HETATM   16  C16   D T1480       4.707   3.720   4.440  1.00 25.21    -0.000 A 
HETATM   17  C17   D T1480       4.707   2.348   4.661  1.00 22.67     0.003 A 
HETATM   18  C18   D T1480       5.699   1.806   5.449  1.00 26.22    -0.000 A 
HETATM   19  C19   D T1480       6.673   2.598   6.007  1.00 25.71    -0.004 A 
BRANCH  17  20
HETATM   20  C20   D T1480       3.677   1.460   4.106  1.00 20.81     0.042 A 
HETATM   21  C21   D T1480       2.644   1.767   3.222  1.00 10.94     0.124 A 
HETATM   22  N22   D T1480       1.871   0.691   2.975  1.00 19.16    -0.146 NA
HETATM   23  N23   D T1480       2.394  -0.321   3.725  1.00 25.24    -0.146 NA
HETATM   24  C24   D T1480       3.475   0.109   4.428  1.00 21.20     0.124 A 
ENDBRANCH  17  20
ENDBRANCH   1  14
TORSDOF 3
ENDMDL
MODEL 5
REMARK VINA RESULT:      -7.5      4.389      6.421
REMARK  3 active torsions:
REMARK  status: ('A' for Active; 'I' for Inactive)
REMARK    1  A    between atoms: C5_5  and  C8_8 
REMARK    2  A    between atoms: C8_8  and  C14_14 
REMARK    3  A    between atoms: C17_17  and  C20_20 
ROOT
HETATM    1  C8    D T1480       9.148   1.704   5.176  1.00 24.84     0.042 C 
HETATM    2  C9    D T1480       9.101   2.134   6.659  1.00 24.83     0.046 C 
HETATM    3  C10   D T1480       8.762   3.598   6.836  1.00 24.63     0.291 C 
HETATM    4  N11   D T1480       9.897   4.324   6.209  1.00 23.69     0.339 N 
HETATM    5  C12   D T1480       9.822   4.126   4.735  1.00 25.57     0.291 C 
HETATM    6  C13   D T1480      10.087   2.664   4.427  1.00 27.98     0.046 C 
ENDROOT
BRANCH   1   7
HETATM    7  C5    D T1480       9.819   0.330   5.130  1.00 27.86    -0.019 A 
HETATM    8  C4    D T1480       9.066  -0.839   5.241  1.00 28.73    -0.003 A 
HETATM    9  C3    D T1480       9.681  -2.071   5.223  1.00 37.49     0.011 A 
HETATM   10  C2    D T1480      11.055  -2.156   5.104  1.00 34.69     0.058 A 
HETATM   11 CL1    D T1480      11.831  -3.705   5.095  1.00 50.48    -0.082 Cl
HETATM   12  C7    D T1480      11.812  -0.997   5.021  1.00 40.09     0.011 A 
HETATM   13  C6    D T1480      11.199   0.239   5.045  1.00 30.28    -0.003 A 
ENDBRANCH   1   7
BRANCH   1  14
HETATM   14  C14   D T1480       7.722   1.646   4.590  1.00 24.09    -0.019 A 
HETATM   15  C15   D T1480       7.449   1.464   3.239  1.00 24.10    -0.004 A 
HETATM   16  C16   D T1480       6.139   1.437   2.781  1.00 25.21    -0.000 A 
HETATM   17  C17   D T1480       5.079   1.584   3.668  1.00 22.67     0.003 A 
HETATM   18  C18   D T1480       5.358   1.758   5.006  1.00 26.22    -0.000 A 
HETATM   19  C19   D T1480       6.653   1.784   5.462  1.00 25.71    -0.004 A 
BRANCH  17  20
HETATM   20  C20   D T1480       3.677   1.586   3.229  1.00 20.81     0.042 A 
HETATM   21  C21   D T1480       2.849   0.500   2.949  1.00 10.94     0.124 A 
HETATM   22  N22   D T1480       1.633   0.903   2.529  1.00 19.16    -0.146 NA
HETATM   23  N23   D T1480       1.680   2.266   2.515  1.00 25.24    -0.146 NA
HETATM   24  C24   D T1480       2.899   2.711   2.919  1.00 21.20     0.124 A 
ENDBRANCH  17  20
ENDBRANCH   1  14
TORSDOF 3
ENDMDL
MODEL 6
REMARK VINA RESULT:      -7.1      3.855      5.674
REMARK  3 active torsions:
REMARK  status: ('A' for Active; 'I' for Inactive)
REMARK    1  A    between atoms: C5_5  and  C8_8 
REMARK    2  A    between atoms: C8_8  and  C14_14 
REMARK    3  A    between atoms: C17_17  and  C20_20 
ROOT
HETATM    1  C8    D T1480       8.582   3.133   5.855  1.00 24.84     0.042 C 
HETATM    2  C9    D T1480       8.576   3.283   7.392  1.00 24.83     0.046 C 
HETATM    3  C10   D T1480       8.105   4.648   7.848  1.00 24.63     0.291 C 
HETATM    4  N11   D T1480       9.126   5.591   7.323  1.00 23.69     0.339 N 
HETATM    5  C12   D T1480       8.988   5.653   5.841  1.00 25.57     0.291 C 
HETATM    6  C13   D T1480       9.378   4.306   5.260  1.00 27.98     0.046 C 
ENDROOT
BRANCH   1   7
HETATM    7  C5    D T1480       9.380   1.870   5.532  1.00 27.86    -0.019 A 
HETATM    8  C4    D T1480      10.639   1.949   4.938  1.00 28.73    -0.003 A 
HETATM    9  C3    D T1480      11.341   0.806   4.628  1.00 37.49     0.011 A 
HETATM   10  C2    D T1480      10.795  -0.435   4.898  1.00 34.69     0.058 A 
HETATM   11 CL1    D T1480      11.671  -1.875   4.497  1.00 50.48    -0.082 Cl
HETATM   12  C7    D T1480       9.532  -0.522   5.465  1.00 40.09     0.011 A 
HETATM   13  C6    D T1480       8.824   0.623   5.769  1.00 30.28    -0.003 A 
ENDBRANCH   1   7
BRANCH   1  14
HETATM   14  C14   D T1480       7.137   3.028   5.323  1.00 24.09    -0.019 A 
HETATM   15  C15   D T1480       6.516   1.824   5.007  1.00 24.10    -0.004 A 
HETATM   16  C16   D T1480       5.217   1.807   4.518  1.00 25.21    -0.000 A 
HETATM   17  C17   D T1480       4.515   2.993   4.343  1.00 22.67     0.003 A 
HETATM   18  C18   D T1480       5.135   4.181   4.663  1.00 26.22    -0.000 A 
HETATM   19  C19   D T1480       6.420   4.201   5.147  1.00 25.71    -0.004 A 
BRANCH  17  20
HETATM   20  C20   D T1480       3.147   3.028   3.807  1.00 20.81     0.042 A 
HETATM   21  C21   D T1480       2.718   3.408   2.537  1.00 10.94     0.124 A 
HETATM   22  N22   D T1480       1.375   3.348   2.432  1.00 19.16    -0.146 NA
HETATM   23  N23   D T1480       0.927   2.945   3.656  1.00 25.24    -0.146 NA
HETATM   24  C24   D T1480       1.965   2.755   4.512  1.00 21.20     0.124 A 
ENDBRANCH  17  20
ENDBRANCH   1  14
TORSDOF 3
ENDMDL
MODEL 7
REMARK VINA RESULT:      -6.9      2.302      3.480
REMARK  3 active torsions:
REMARK  status: ('A' for Active; 'I' for Inactive)
REMARK    1  A    between atoms: C5_5  and  C8_8 
REMARK    2  A    between atoms: C8_8  and  C14_14 
REMARK    3  A    between atoms: C17_17  and  C20_20 
ROOT
HETATM    1  C8    D T1480       8.162   2.057   5.099  1.00 24.84     0.042 C 
HETATM    2  C9    D T1480       9.236   2.357   4.029  1.00 24.83     0.046 C 
HETATM    3  C10   D T1480       9.809   1.103   3.404  1.00 24.63     0.291 C 
HETATM    4  N11   D T1480      10.494   0.406   4.524  1.00 23.69     0.339 N 
HETATM    5  C12   D T1480       9.456  -0.114   5.456  1.00 25.57     0.291 C 
HETATM    6  C13   D T1480       8.756   1.063   6.110  1.00 27.98     0.046 C 
ENDROOT
BRANCH   1   7
HETATM    7  C5    D T1480       7.923   3.357   5.869  1.00 27.86    -0.019 A 
HETATM    8  C4    D T1480       8.317   3.483   7.200  1.00 28.73    -0.003 A 
HETATM    9  C3    D T1480       8.076   4.649   7.894  1.00 37.49     0.011 A 
HETATM   10  C2    D T1480       7.431   5.701   7.272  1.00 34.69     0.058 A 
HETATM   11 CL1    D T1480       7.115   7.163   8.147  1.00 50.48    -0.082 Cl
HETATM   12  C7    D T1480       7.012   5.572   5.957  1.00 40.09     0.011 A 
HETATM   13  C6    D T1480       7.246   4.403   5.263  1.00 30.28    -0.003 A 
ENDBRANCH   1   7
BRANCH   1  14
HETATM   14  C14   D T1480       6.863   1.562   4.429  1.00 24.09    -0.019 A 
HETATM   15  C15   D T1480       6.648   1.582   3.055  1.00 24.10    -0.004 A 
HETATM   16  C16   D T1480       5.446   1.133   2.523  1.00 25.21    -0.000 A 
HETATM   17  C17   D T1480       4.444   0.651   3.355  1.00 22.67     0.003 A 
HETATM   18  C18   D T1480       4.667   0.630   4.715  1.00 26.22    -0.000 A 
HETATM   19  C19   D T1480       5.855   1.072   5.244  1.00 25.71    -0.004 A 
BRANCH  17  20
HETATM   20  C20   D T1480       3.148   0.188   2.841  1.00 20.81     0.042 A 
HETATM   21  C21   D T1480       2.851  -0.987   2.153  1.00 10.94     0.124 A 
HETATM   22  N22   D T1480       1.550  -1.041   1.806  1.00 19.16    -0.146 NA
HETATM   23  N23   D T1480       1.000   0.124   2.256  1.00 25.24    -0.146 NA
HETATM   24  C24   D T1480       1.935   0.893   2.873  1.00 21.20     0.124 A 
ENDBRANCH  17  20
ENDBRANCH   1  14
TORSDOF 3
ENDMDL
MODEL 8
REMARK VINA RESULT:      -6.9      4.516      7.961
REMARK  3 active torsions:
REMARK  status: ('A' for Active; 'I' for Inactive)
REMARK    1  A    between atoms: C5_5  and  C8_8 
REMARK    2  A    between atoms: C8_8  and  C14_14 
REMARK    3  A    between atoms: C17_17  and  C20_20 
ROOT
HETATM    1  C8    D T1480       4.881   0.808   3.898  1.00 24.84     0.042 C 
HETATM    2  C9    D T1480       4.608   0.751   2.378  1.00 24.83     0.046 C 
HETATM    3  C10   D T1480       4.454   2.122   1.757  1.00 24.63     0.291 C 
HETATM    4  N11   D T1480       3.238   2.690   2.396  1.00 23.69     0.339 N 
HETATM    5  C12   D T1480       3.555   2.988   3.820  1.00 25.57     0.291 C 
HETATM    6  C13   D T1480       3.794   1.678   4.549  1.00 27.98     0.046 C 
ENDROOT
BRANCH   1   7
HETATM    7  C5    D T1480       4.678  -0.606   4.442  1.00 27.86    -0.019 A 
HETATM    8  C4    D T1480       4.417  -0.823   5.794  1.00 28.73    -0.003 A 
HETATM    9  C3    D T1480       4.260  -2.102   6.281  1.00 37.49     0.011 A 
HETATM   10  C2    D T1480       4.370  -3.184   5.427  1.00 34.69     0.058 A 
HETATM   11 CL1    D T1480       4.185  -4.795   6.040  1.00 50.48    -0.082 Cl
HETATM   12  C7    D T1480       4.656  -2.977   4.087  1.00 40.09     0.011 A 
HETATM   13  C6    D T1480       4.821  -1.697   3.599  1.00 30.28    -0.003 A 
ENDBRANCH   1   7
BRANCH   1  14
HETATM   14  C14   D T1480       6.318   1.304   4.163  1.00 24.09    -0.019 A 
HETATM   15  C15   D T1480       7.375   1.118   3.279  1.00 24.10    -0.004 A 
HETATM   16  C16   D T1480       8.647   1.579   3.592  1.00 25.21    -0.000 A 
HETATM   17  C17   D T1480       8.881   2.241   4.791  1.00 22.67     0.003 A 
HETATM   18  C18   D T1480       7.827   2.427   5.659  1.00 26.22    -0.000 A 
HETATM   19  C19   D T1480       6.568   1.972   5.352  1.00 25.71    -0.004 A 
BRANCH  17  20
HETATM   20  C20   D T1480      10.212   2.726   5.177  1.00 20.81     0.042 A 
HETATM   21  C21   D T1480      11.447   2.096   5.033  1.00 10.94     0.124 A 
HETATM   22  N22   D T1480      12.445   2.841   5.548  1.00 19.16    -0.146 NA
HETATM   23  N23   D T1480      11.847   3.959   6.054  1.00 25.24    -0.146 NA
HETATM   24  C24   D T1480      10.503   3.918   5.860  1.00 21.20     0.124 A 
ENDBRANCH  17  20
ENDBRANCH   1  14
TORSDOF 3
ENDMDL
MODEL 9
REMARK VINA RESULT:      -6.9      3.701      7.079
REMARK  3 active torsions:
REMARK  status: ('A' for Active; 'I' for Inactive)
REMARK    1  A    between atoms: C5_5  and  C8_8 
REMARK    2  A    between atoms: C8_8  and  C14_14 
REMARK    3  A    between atoms: C17_17  and  C20_20 
ROOT
HETATM    1  C8    D T1480       5.204   0.427   3.621  1.00 24.84     0.042 C 
HETATM    2  C9    D T1480       4.810  -0.635   4.672  1.00 24.83     0.046 C 
HETATM    3  C10   D T1480       5.732  -1.836   4.668  1.00 24.63     0.291 C 
HETATM    4  N11   D T1480       5.536  -2.454   3.331  1.00 23.69     0.339 N 
HETATM    5  C12   D T1480       6.135  -1.554   2.307  1.00 25.57     0.291 C 
HETATM    6  C13   D T1480       5.327  -0.271   2.256  1.00 27.98     0.046 C 
ENDROOT
BRANCH   1   7
HETATM    7  C5    D T1480       4.026   1.395   3.501  1.00 27.86    -0.019 A 
HETATM    8  C4    D T1480       2.944   1.319   4.376  1.00 28.73    -0.003 A 
HETATM    9  C3    D T1480       1.876   2.179   4.246  1.00 37.49     0.011 A 
HETATM   10  C2    D T1480       1.867   3.120   3.234  1.00 34.69     0.058 A 
HETATM   11 CL1    D T1480       0.518   4.194   3.059  1.00 50.48    -0.082 Cl
HETATM   12  C7    D T1480       2.928   3.183   2.343  1.00 40.09     0.011 A 
HETATM   13  C6    D T1480       3.995   2.318   2.468  1.00 30.28    -0.003 A 
ENDBRANCH   1   7
BRANCH   1  14
HETATM   14  C14   D T1480       6.486   1.164   4.061  1.00 24.09    -0.019 A 
HETATM   15  C15   D T1480       7.608   1.312   3.252  1.00 24.10    -0.004 A 
HETATM   16  C16   D T1480       8.733   1.976   3.721  1.00 25.21    -0.000 A 
HETATM   17  C17   D T1480       8.754   2.509   5.004  1.00 22.67     0.003 A 
HETATM   18  C18   D T1480       7.636   2.362   5.797  1.00 26.22    -0.000 A 
HETATM   19  C19   D T1480       6.521   1.706   5.336  1.00 25.71    -0.004 A 
BRANCH  17  20
HETATM   20  C20   D T1480       9.929   3.198   5.553  1.00 20.81     0.042 A 
HETATM   21  C21   D T1480       9.978   4.212   6.507  1.00 10.94     0.124 A 
HETATM   22  N22   D T1480      11.243   4.624   6.725  1.00 19.16    -0.146 NA
HETATM   23  N23   D T1480      12.022   3.884   5.884  1.00 25.24    -0.146 NA
HETATM   24  C24   D T1480      11.263   3.024   5.155  1.00 21.20     0.124 A 
ENDBRANCH  17  20
ENDBRANCH   1  14
TORSDOF 3
ENDMDL
