MODEL 1
REMARK VINA RESULT:      -7.5      0.000      0.000
REMARK  2 active torsions:
REMARK  status: ('A' for Active; 'I' for Inactive)
REMARK    1  A    between atoms: C5_4  and  O7_13 
REMARK    2  A    between atoms: C8_10  and  O7_13 
ROOT
HETATM    1  O7    D T 801       9.976   5.090   6.218  1.00 44.91    -0.304 OA
ENDROOT
BRANCH   1   2
HETATM    2  C5    D T 801      10.207   3.884   5.602  1.00 45.35     0.125 A 
HETATM    3  C6    D T 801      11.487   3.288   5.785  1.00 44.30     0.154 A 
HETATM    4  C1    D T 801      11.759   2.028   5.133  1.00 43.93     0.041 A 
HETATM    5  O17   D T 801      12.442   3.875   6.542  1.00 43.09    -0.188 OA
HETATM    6  C2    D T 801      10.718   1.452   4.336  1.00 44.08     0.060 A 
HETATM    7  C3    D T 801       9.433   2.031   4.140  1.00 44.17     0.014 A 
HETATM    8 CL14   D T 801      11.038  -0.049   3.551  1.00 45.88    -0.082 Cl
HETATM    9  C4    D T 801       9.184   3.269   4.790  1.00 45.15     0.028 A 
ENDBRANCH   1   2
BRANCH   1  10
HETATM   10  C8    D T 801       8.765   5.485   6.782  1.00 47.49     0.111 A 
HETATM   11  C9    D T 801       7.998   6.505   6.105  1.00 48.15     0.081 A 
HETATM   12  C10   D T 801       6.751   6.946   6.638  1.00 48.95     0.025 A 
HETATM   13 CL16   D T 801       8.562   7.241   4.606  1.00 47.31    -0.080 Cl
HETATM   14  C11   D T 801       6.267   6.361   7.864  1.00 49.51     0.059 A 
HETATM   15  C12   D T 801       7.014   5.348   8.554  1.00 49.76     0.013 A 
HETATM   16 CL15   D T 801       4.762   6.881   8.528  1.00 51.18    -0.082 Cl
HETATM   17  C13   D T 801       8.241   4.925   8.014  1.00 48.54     0.026 A 
ENDBRANCH   1  10
TORSDOF 2
ENDMDL
MODEL 2
REMARK VINA RESULT:      -7.5      1.709      6.255
REMARK  2 active torsions:
REMARK  status: ('A' for Active; 'I' for Inactive)
REMARK    1  A    between atoms: C5_4  and  O7_13 
REMARK    2  A    between atoms: C8_10  and  O7_13 
ROOT
HETATM    1  O7    D T 801       9.939   4.602   5.097  1.00 44.91    -0.304 OA
ENDROOT
BRANCH   1   2
HETATM    2  C5    D T 801       9.096   5.109   6.056  1.00 45.35     0.125 A 
HETATM    3  C6    D T 801       8.336   6.265   5.717  1.00 44.30     0.154 A 
HETATM    4  C1    D T 801       7.455   6.826   6.713  1.00 43.93     0.041 A 
HETATM    5  O17   D T 801       8.429   6.843   4.497  1.00 43.09    -0.188 OA
HETATM    6  C2    D T 801       7.399   6.183   7.991  1.00 44.08     0.060 A 
HETATM    7  C3    D T 801       8.149   5.028   8.351  1.00 44.17     0.014 A 
HETATM    8 CL14   D T 801       6.353   6.851   9.188  1.00 45.88    -0.082 Cl
HETATM    9  C4    D T 801       9.010   4.490   7.356  1.00 45.15     0.028 A 
ENDBRANCH   1   2
BRANCH   1  10
HETATM   10  C8    D T 801      10.117   3.249   4.819  1.00 47.49     0.111 A 
HETATM   11  C9    D T 801      11.403   2.656   5.104  1.00 48.15     0.081 A 
HETATM   12  C10   D T 801      11.639   1.276   4.838  1.00 48.95     0.025 A 
HETATM   13 CL16   D T 801      12.724   3.604   5.786  1.00 47.31    -0.080 Cl
HETATM   14  C11   D T 801      10.576   0.478   4.279  1.00 49.51     0.059 A 
HETATM   15  C12   D T 801       9.291   1.046   3.986  1.00 49.76     0.013 A 
HETATM   16 CL15   D T 801      10.840  -1.195   3.948  1.00 51.18    -0.082 Cl
HETATM   17  C13   D T 801       9.075   2.409   4.254  1.00 48.54     0.026 A 
ENDBRANCH   1  10
TORSDOF 2
ENDMDL
MODEL 3
REMARK VINA RESULT:      -7.5      1.667      2.140
REMARK  2 active torsions:
REMARK  status: ('A' for Active; 'I' for Inactive)
REMARK    1  A    between atoms: C5_4  and  O7_13 
REMARK    2  A    between atoms: C8_10  and  O7_13 
ROOT
HETATM    1  O7    D T 801      10.299   4.379   5.025  1.00 44.91    -0.304 OA
ENDROOT
BRANCH   1   2
HETATM    2  C5    D T 801      10.260   3.032   4.757  1.00 45.35     0.125 A 
HETATM    3  C6    D T 801      11.453   2.285   4.971  1.00 44.30     0.154 A 
HETATM    4  C1    D T 801      11.440   0.870   4.681  1.00 43.93     0.041 A 
HETATM    5  O17   D T 801      12.585   2.869   5.428  1.00 43.09    -0.188 OA
HETATM    6  C2    D T 801      10.221   0.301   4.193  1.00 44.08     0.060 A 
HETATM    7  C3    D T 801       9.018   1.029   3.972  1.00 44.17     0.014 A 
HETATM    8 CL14   D T 801      10.201  -1.387   3.839  1.00 45.88    -0.082 Cl
HETATM    9  C4    D T 801       9.050   2.419   4.264  1.00 45.15     0.028 A 
ENDBRANCH   1   2
BRANCH   1  10
HETATM   10  C8    D T 801       9.341   5.082   5.750  1.00 47.49     0.111 A 
HETATM   11  C9    D T 801       9.293   4.893   7.182  1.00 48.15     0.081 A 
HETATM   12  C10   D T 801       8.332   5.588   7.972  1.00 48.95     0.025 A 
HETATM   13 CL16   D T 801      10.409   3.804   8.005  1.00 47.31    -0.080 Cl
HETATM   14  C11   D T 801       7.406   6.483   7.323  1.00 49.51     0.059 A 
HETATM   15  C12   D T 801       7.435   6.686   5.903  1.00 49.76     0.013 A 
HETATM   16 CL15   D T 801       6.234   7.334   8.261  1.00 51.18    -0.082 Cl
HETATM   17  C13   D T 801       8.389   5.992   5.138  1.00 48.54     0.026 A 
ENDBRANCH   1  10
TORSDOF 2
ENDMDL
MODEL 4
REMARK VINA RESULT:      -7.5      1.625      6.214
REMARK  2 active torsions:
REMARK  status: ('A' for Active; 'I' for Inactive)
REMARK    1  A    between atoms: C5_4  and  O7_13 
REMARK    2  A    between atoms: C8_10  and  O7_13 
ROOT
HETATM    1  O7    D T 801       9.850   4.803   5.149  1.00 44.91    -0.304 OA
ENDROOT
BRANCH   1   2
HETATM    2  C5    D T 801       9.005   5.295   6.113  1.00 45.35     0.125 A 
HETATM    3  C6    D T 801       8.161   6.385   5.754  1.00 44.30     0.154 A 
HETATM    4  C1    D T 801       7.277   6.929   6.757  1.00 43.93     0.041 A 
HETATM    5  O17   D T 801       8.179   6.916   4.510  1.00 43.09    -0.188 OA
HETATM    6  C2    D T 801       7.301   6.338   8.060  1.00 44.08     0.060 A 
HETATM    7  C3    D T 801       8.135   5.249   8.440  1.00 44.17     0.014 A 
HETATM    8 CL14   D T 801       6.250   6.987   9.263  1.00 45.88    -0.082 Cl
HETATM    9  C4    D T 801       8.998   4.726   7.440  1.00 45.15     0.028 A 
ENDBRANCH   1   2
BRANCH   1  10
HETATM   10  C8    D T 801      10.374   3.513   5.122  1.00 47.49     0.111 A 
HETATM   11  C9    D T 801       9.500   2.429   4.738  1.00 48.15     0.081 A 
HETATM   12  C10   D T 801       9.985   1.089   4.694  1.00 48.95     0.025 A 
HETATM   13 CL16   D T 801       7.813   2.712   4.312  1.00 47.31    -0.080 Cl
HETATM   14  C11   D T 801      11.361   0.830   5.039  1.00 49.51     0.059 A 
HETATM   15  C12   D T 801      12.247   1.892   5.425  1.00 49.76     0.013 A 
HETATM   16 CL15   D T 801      11.968  -0.784   4.993  1.00 51.18    -0.082 Cl
HETATM   17  C13   D T 801      11.752   3.207   5.463  1.00 48.54     0.026 A 
ENDBRANCH   1  10
TORSDOF 2
ENDMDL
MODEL 5
REMARK VINA RESULT:      -7.3      2.399      6.710
REMARK  2 active torsions:
REMARK  status: ('A' for Active; 'I' for Inactive)
REMARK    1  A    between atoms: C5_4  and  O7_13 
REMARK    2  A    between atoms: C8_10  and  O7_13 
ROOT
HETATM    1  O7    D T 801       9.619   2.507   4.821  1.00 44.91    -0.304 OA
ENDROOT
BRANCH   1   2
HETATM    2  C5    D T 801       9.002   3.228   5.814  1.00 45.35     0.125 A 
HETATM    3  C6    D T 801       7.586   3.370   5.740  1.00 44.30     0.154 A 
HETATM    4  C1    D T 801       6.917   4.137   6.763  1.00 43.93     0.041 A 
HETATM    5  O17   D T 801       6.869   2.811   4.739  1.00 43.09    -0.188 OA
HETATM    6  C2    D T 801       7.722   4.715   7.797  1.00 44.08     0.060 A 
HETATM    7  C3    D T 801       9.137   4.586   7.890  1.00 44.17     0.014 A 
HETATM    8 CL14   D T 801       6.930   5.637   9.019  1.00 45.88    -0.082 Cl
HETATM    9  C4    D T 801       9.777   3.827   6.874  1.00 45.15     0.028 A 
ENDBRANCH   1   2
BRANCH   1  10
HETATM   10  C8    D T 801      10.091   1.203   4.951  1.00 47.49     0.111 A 
HETATM   11  C9    D T 801      11.515   1.003   5.091  1.00 48.15     0.081 A 
HETATM   12  C10   D T 801      12.051  -0.310   5.228  1.00 48.95     0.025 A 
HETATM   13 CL16   D T 801      12.640   2.361   5.101  1.00 47.31    -0.080 Cl
HETATM   14  C11   D T 801      11.154  -1.438   5.221  1.00 49.51     0.059 A 
HETATM   15  C12   D T 801       9.736  -1.263   5.081  1.00 49.76     0.013 A 
HETATM   16 CL15   D T 801      11.782  -3.037   5.383  1.00 51.18    -0.082 Cl
HETATM   17  C13   D T 801       9.224   0.039   4.948  1.00 48.54     0.026 A 
ENDBRANCH   1  10
TORSDOF 2
ENDMDL
MODEL 6
REMARK VINA RESULT:      -7.2      2.596      3.231
REMARK  2 active torsions:
REMARK  status: ('A' for Active; 'I' for Inactive)
REMARK    1  A    between atoms: C5_4  and  O7_13 
REMARK    2  A    between atoms: C8_10  and  O7_13 
ROOT
HETATM    1  O7    D T 801       9.672   2.146   4.701  1.00 44.91    -0.304 OA
ENDROOT
BRANCH   1   2
HETATM    2  C5    D T 801      10.150   0.870   4.871  1.00 45.35     0.125 A 
HETATM    3  C6    D T 801      11.561   0.706   4.978  1.00 44.30     0.154 A 
HETATM    4  C1    D T 801      12.088  -0.628   5.141  1.00 43.93     0.041 A 
HETATM    5  O17   D T 801      12.404   1.762   4.924  1.00 43.09    -0.188 OA
HETATM    6  C2    D T 801      11.156  -1.713   5.185  1.00 44.08     0.060 A 
HETATM    7  C3    D T 801       9.743  -1.572   5.080  1.00 44.17     0.014 A 
HETATM    8 CL14   D T 801      11.779  -3.309   5.374  1.00 45.88    -0.082 Cl
HETATM    9  C4    D T 801       9.243  -0.252   4.920  1.00 45.15     0.028 A 
ENDBRANCH   1   2
BRANCH   1  10
HETATM   10  C8    D T 801       9.131   2.942   5.707  1.00 47.49     0.111 A 
HETATM   11  C9    D T 801       7.698   3.125   5.737  1.00 48.15     0.081 A 
HETATM   12  C10   D T 801       7.092   3.930   6.745  1.00 48.95     0.025 A 
HETATM   13 CL16   D T 801       6.647   2.370   4.539  1.00 47.31    -0.080 Cl
HETATM   14  C11   D T 801       7.929   4.561   7.735  1.00 49.51     0.059 A 
HETATM   15  C12   D T 801       9.354   4.394   7.725  1.00 49.76     0.013 A 
HETATM   16 CL15   D T 801       7.216   5.540   8.965  1.00 51.18    -0.082 Cl
HETATM   17  C13   D T 801       9.935   3.597   6.723  1.00 48.54     0.026 A 
ENDBRANCH   1  10
TORSDOF 2
ENDMDL
MODEL 7
REMARK VINA RESULT:      -6.8      2.753      6.971
REMARK  2 active torsions:
REMARK  status: ('A' for Active; 'I' for Inactive)
REMARK    1  A    between atoms: C5_4  and  O7_13 
REMARK    2  A    between atoms: C8_10  and  O7_13 
ROOT
HETATM    1  O7    D T 801       8.900   1.917   4.619  1.00 44.91    -0.304 OA
ENDROOT
BRANCH   1   2
HETATM    2  C5    D T 801       8.549   2.767   5.640  1.00 45.35     0.125 A 
HETATM    3  C6    D T 801       7.195   3.206   5.693  1.00 44.30     0.154 A 
HETATM    4  C1    D T 801       6.807   4.112   6.748  1.00 43.93     0.041 A 
HETATM    5  O17   D T 801       6.281   2.800   4.782  1.00 43.09    -0.188 OA
HETATM    6  C2    D T 801       7.812   4.518   7.682  1.00 44.08     0.060 A 
HETATM    7  C3    D T 801       9.170   4.092   7.647  1.00 44.17     0.014 A 
HETATM    8 CL14   D T 801       7.356   5.605   8.941  1.00 45.88    -0.082 Cl
HETATM    9  C4    D T 801       9.533   3.200   6.603  1.00 45.15     0.028 A 
ENDBRANCH   1   2
BRANCH   1  10
HETATM   10  C8    D T 801       9.616   0.733   4.771  1.00 47.49     0.111 A 
HETATM   11  C9    D T 801       8.884  -0.470   5.097  1.00 48.15     0.081 A 
HETATM   12  C10   D T 801       9.567  -1.710   5.263  1.00 48.95     0.025 A 
HETATM   13 CL16   D T 801       7.133  -0.456   5.302  1.00 47.31    -0.080 Cl
HETATM   14  C11   D T 801      10.999  -1.748   5.103  1.00 49.51     0.059 A 
HETATM   15  C12   D T 801      11.746  -0.566   4.780  1.00 49.76     0.013 A 
HETATM   16 CL15   D T 801      11.846  -3.239   5.300  1.00 51.18    -0.082 Cl
HETATM   17  C13   D T 801      11.057   0.649   4.619  1.00 48.54     0.026 A 
ENDBRANCH   1  10
TORSDOF 2
ENDMDL
MODEL 8
REMARK VINA RESULT:      -6.8      2.133      6.155
REMARK  2 active torsions:
REMARK  status: ('A' for Active; 'I' for Inactive)
REMARK    1  A    between atoms: C5_4  and  O7_13 
REMARK    2  A    between atoms: C8_10  and  O7_13 
ROOT
HETATM    1  O7    D T 801       8.748   4.508   6.610  1.00 44.91    -0.304 OA
ENDROOT
BRANCH   1   2
HETATM    2  C5    D T 801       7.942   5.530   7.051  1.00 45.35     0.125 A 
HETATM    3  C6    D T 801       7.614   6.556   6.120  1.00 44.30     0.154 A 
HETATM    4  C1    D T 801       6.782   7.649   6.565  1.00 43.93     0.041 A 
HETATM    5  O17   D T 801       8.068   6.530   4.845  1.00 43.09    -0.188 OA
HETATM    6  C2    D T 801       6.334   7.635   7.925  1.00 44.08     0.060 A 
HETATM    7  C3    D T 801       6.650   6.619   8.871  1.00 44.17     0.014 A 
HETATM    8 CL14   D T 801       5.345   8.939   8.465  1.00 45.88    -0.082 Cl
HETATM    9  C4    D T 801       7.470   5.553   8.414  1.00 45.15     0.028 A 
ENDBRANCH   1   2
BRANCH   1  10
HETATM   10  C8    D T 801       8.339   3.458   5.792  1.00 47.49     0.111 A 
HETATM   11  C9    D T 801       9.287   2.923   4.843  1.00 48.15     0.081 A 
HETATM   12  C10   D T 801       8.921   1.847   3.982  1.00 48.95     0.025 A 
HETATM   13 CL16   D T 801      10.922   3.569   4.709  1.00 47.31    -0.080 Cl
HETATM   14  C11   D T 801       7.589   1.302   4.069  1.00 49.51     0.059 A 
HETATM   15  C12   D T 801       6.631   1.818   5.004  1.00 49.76     0.013 A 
HETATM   16 CL15   D T 801       7.125   0.001   3.036  1.00 51.18    -0.082 Cl
HETATM   17  C13   D T 801       7.009   2.879   5.846  1.00 48.54     0.026 A 
ENDBRANCH   1  10
TORSDOF 2
ENDMDL
MODEL 9
REMARK VINA RESULT:      -6.7     11.540     13.347
REMARK  2 active torsions:
REMARK  status: ('A' for Active; 'I' for Inactive)
REMARK    1  A    between atoms: C5_4  and  O7_13 
REMARK    2  A    between atoms: C8_10  and  O7_13 
ROOT
HETATM    1  O7    D T 801      19.209   7.724   9.626  1.00 44.91    -0.304 OA
ENDROOT
BRANCH   1   2
HETATM    2  C5    D T 801      19.198   6.934  10.750  1.00 45.35     0.125 A 
HETATM    3  C6    D T 801      19.223   7.589  12.014  1.00 44.30     0.154 A 
HETATM    4  C1    D T 801      19.229   6.779  13.209  1.00 43.93     0.041 A 
HETATM    5  O17   D T 801      19.248   8.938  12.114  1.00 43.09    -0.188 OA
HETATM    6  C2    D T 801      19.209   5.356  13.050  1.00 44.08     0.060 A 
HETATM    7  C3    D T 801      19.184   4.682  11.796  1.00 44.17     0.014 A 
HETATM    8 CL14   D T 801      19.221   4.382  14.472  1.00 45.88    -0.082 Cl
HETATM    9  C4    D T 801      19.178   5.496  10.633  1.00 45.15     0.028 A 
ENDBRANCH   1   2
BRANCH   1  10
HETATM   10  C8    D T 801      20.353   8.160   8.962  1.00 47.49     0.111 A 
HETATM   11  C9    D T 801      20.707   7.516   7.718  1.00 48.15     0.081 A 
HETATM   12  C10   D T 801      21.867   7.924   6.997  1.00 48.95     0.025 A 
HETATM   13 CL16   D T 801      19.730   6.212   7.044  1.00 47.31    -0.080 Cl
HETATM   14  C11   D T 801      22.685   8.987   7.526  1.00 49.51     0.059 A 
HETATM   15  C12   D T 801      22.353   9.640   8.761  1.00 49.76     0.013 A 
HETATM   16 CL15   D T 801      24.094   9.495   6.670  1.00 51.18    -0.082 Cl
HETATM   17  C13   D T 801      21.205   9.225   9.459  1.00 48.54     0.026 A 
ENDBRANCH   1  10
TORSDOF 2
ENDMDL
