MODEL 1
REMARK VINA RESULT:      -7.5      0.000      0.000
REMARK  4 active torsions:
REMARK  status: ('A' for Active; 'I' for Inactive)
REMARK    1  A    between atoms: C4_6  and  C5_7 
REMARK    2  A    between atoms: C5_7  and  C6_8 
REMARK    3  A    between atoms: C5_7  and  C12_16 
REMARK    4  A    between atoms: C21_27  and  C22_28 
ROOT
HETATM    1  C12   D T   1       9.883  -4.208  -3.616  1.00 23.69     0.021 A 
HETATM    2  C13   D T   1       9.641  -4.994  -2.485  1.00 23.69    -0.000 A 
HETATM    3  C14   D T   1       9.153  -6.304  -2.504  1.00 23.69     0.016 A 
HETATM    4  C15   D T   1       9.640  -4.813  -4.905  1.00 23.69    -0.000 A 
HETATM    5  C16   D T   1       9.119  -6.136  -5.048  1.00 23.69     0.017 A 
HETATM    6  C17   D T   1       8.901  -6.952  -3.917  1.00 23.69     0.062 A 
HETATM    7  N4    D T   1       8.375  -8.257  -3.977  1.00 23.69    -0.294 N 
HETATM    8  C18   D T   1       8.112  -8.859  -5.308  1.00 23.69     0.134 C 
HETATM    9  C19   D T   1       8.148  -9.041  -2.787  1.00 23.69     0.261 A 
HETATM   10  O1    D T   1       7.706 -10.194  -2.845  1.00 23.69    -0.267 OA
HETATM   11  C20   D T   1       8.407  -8.447  -1.535  1.00 23.69     0.061 A 
HETATM   12  C21   D T   1       8.903  -7.109  -1.369  1.00 23.69     0.006 A 
ENDROOT
BRANCH   1  13
HETATM   13  C5    D T   1      10.431  -2.751  -3.498  1.00 23.69     0.338 C 
HETATM   14  N3    D T   1      11.672  -2.562  -4.320  1.00 23.69     0.628 N 
BRANCH  13  15
HETATM   15  C4    D T   1       9.380  -1.797  -4.144  1.00 23.69     0.100 A 
HETATM   16  N1    D T   1       9.696  -0.448  -4.384  1.00 23.69    -0.308 N 
HETATM   17  C1    D T   1      10.913   0.311  -4.172  1.00 23.69     0.132 C 
HETATM   18  C2    D T   1       8.556   0.058  -4.936  1.00 23.69     0.178 A 
HETATM   19  N2    D T   1       7.573  -0.792  -5.059  1.00 23.69    -0.223 NA
HETATM   20  C3    D T   1       8.070  -1.960  -4.556  1.00 23.69     0.116 A 
ENDBRANCH  13  15
BRANCH  13  21
HETATM   21  C6    D T   1      10.670  -2.374  -1.960  1.00 23.69     0.003 A 
HETATM   22  C7    D T   1       9.576  -1.968  -1.076  1.00 23.69     0.051 A 
HETATM   23  C8    D T   1       9.822  -1.617   0.296  1.00 23.69    -0.010 A 
HETATM   24  C9    D T   1      11.134  -1.723   0.831  1.00 23.69     0.054 A 
HETATM   25 CL1    D T   1      11.404  -1.337   2.462  1.00 23.69    -0.083 Cl
HETATM   26  C10   D T   1      12.227  -2.115  -0.016  1.00 23.69     0.011 A 
HETATM   27  C11   D T   1      11.991  -2.450  -1.363  1.00 23.69    -0.005 A 
ENDBRANCH  13  21
ENDBRANCH   1  13
BRANCH  12  28
HETATM   28  C22   D T   1       9.115  -6.652   0.030  1.00 23.69     0.001 A 
HETATM   29  C23   D T   1       9.564  -7.557   1.021  1.00 23.69     0.011 A 
HETATM   30  C24   D T   1       9.794  -7.119   2.379  1.00 23.69     0.058 A 
HETATM   31 CL2    D T   1      10.351  -8.200   3.554  1.00 23.69    -0.082 Cl
HETATM   32  C25   D T   1       9.514  -5.746   2.751  1.00 23.69     0.011 A 
HETATM   33  C26   D T   1       9.045  -4.831   1.734  1.00 23.69     0.001 A 
HETATM   34  C27   D T   1       8.839  -5.293   0.380  1.00 23.69     0.000 A 
ENDBRANCH  12  28
TORSDOF 4
ENDMDL
MODEL 2
REMARK VINA RESULT:      -6.9      3.283      5.519
REMARK  4 active torsions:
REMARK  status: ('A' for Active; 'I' for Inactive)
REMARK    1  A    between atoms: C4_6  and  C5_7 
REMARK    2  A    between atoms: C5_7  and  C6_8 
REMARK    3  A    between atoms: C5_7  and  C12_16 
REMARK    4  A    between atoms: C21_27  and  C22_28 
ROOT
HETATM    1  C12   D T   1       9.208  -2.677  -1.564  1.00 23.69     0.021 A 
HETATM    2  C13   D T   1       9.247  -3.987  -1.074  1.00 23.69    -0.000 A 
HETATM    3  C14   D T   1       9.755  -4.365   0.172  1.00 23.69     0.016 A 
HETATM    4  C15   D T   1       9.701  -1.632  -0.697  1.00 23.69    -0.000 A 
HETATM    5  C16   D T   1      10.265  -1.902   0.588  1.00 23.69     0.017 A 
HETATM    6  C17   D T   1      10.282  -3.213   1.109  1.00 23.69     0.062 A 
HETATM    7  N4    D T   1      10.835  -3.558   2.356  1.00 23.69    -0.294 N 
HETATM    8  C18   D T   1      11.356  -2.477   3.230  1.00 23.69     0.134 C 
HETATM    9  C19   D T   1      10.849  -4.921   2.832  1.00 23.69     0.261 A 
HETATM   10  O1    D T   1      11.316  -5.218   3.938  1.00 23.69    -0.267 OA
HETATM   11  C20   D T   1      10.347  -5.930   1.985  1.00 23.69     0.061 A 
HETATM   12  C21   D T   1       9.803  -5.684   0.678  1.00 23.69     0.006 A 
ENDROOT
BRANCH   1  13
HETATM   13  C5    D T   1       8.619  -2.347  -2.972  1.00 23.69     0.338 C 
HETATM   14  N3    D T   1       7.122  -2.447  -2.978  1.00 23.69     0.628 N 
BRANCH  13  15
HETATM   15  C4    D T   1       8.917  -0.846  -3.269  1.00 23.69     0.100 A 
HETATM   16  N1    D T   1       8.510  -0.267  -4.484  1.00 23.69    -0.308 N 
HETATM   17  C1    D T   1       7.773  -0.805  -5.611  1.00 23.69     0.132 C 
HETATM   18  C2    D T   1       8.941   1.024  -4.387  1.00 23.69     0.178 A 
HETATM   19  N2    D T   1       9.572   1.318  -3.283  1.00 23.69    -0.223 NA
HETATM   20  C3    D T   1       9.575   0.152  -2.574  1.00 23.69     0.116 A 
ENDBRANCH  13  15
BRANCH  13  21
HETATM   21  C6    D T   1       9.285  -3.289  -4.083  1.00 23.69     0.003 A 
HETATM   22  C7    D T   1      10.711  -3.224  -4.409  1.00 23.69     0.051 A 
HETATM   23  C8    D T   1      11.279  -4.068  -5.425  1.00 23.69    -0.010 A 
HETATM   24  C9    D T   1      10.465  -5.029  -6.084  1.00 23.69     0.054 A 
HETATM   25 CL1    D T   1      11.157  -6.043  -7.258  1.00 23.69    -0.083 Cl
HETATM   26  C10   D T   1       9.063  -5.112  -5.786  1.00 23.69     0.011 A 
HETATM   27  C11   D T   1       8.501  -4.280  -4.799  1.00 23.69    -0.005 A 
ENDBRANCH  13  21
ENDBRANCH   1  13
BRANCH  12  28
HETATM   28  C22   D T   1       9.322  -6.874  -0.071  1.00 23.69     0.001 A 
HETATM   29  C23   D T   1       9.356  -6.895  -1.486  1.00 23.69     0.011 A 
HETATM   30  C24   D T   1       8.911  -8.055  -2.224  1.00 23.69     0.058 A 
HETATM   31 CL2    D T   1       8.974  -8.081  -3.914  1.00 23.69    -0.082 Cl
HETATM   32  C25   D T   1       8.371  -9.197  -1.515  1.00 23.69     0.011 A 
HETATM   33  C26   D T   1       8.328  -9.163  -0.069  1.00 23.69     0.001 A 
HETATM   34  C27   D T   1       8.796  -7.996   0.644  1.00 23.69     0.000 A 
ENDBRANCH  12  28
TORSDOF 4
ENDMDL
MODEL 3
REMARK VINA RESULT:      -6.9      2.527      4.125
REMARK  4 active torsions:
REMARK  status: ('A' for Active; 'I' for Inactive)
REMARK    1  A    between atoms: C4_6  and  C5_7 
REMARK    2  A    between atoms: C5_7  and  C6_8 
REMARK    3  A    between atoms: C5_7  and  C12_16 
REMARK    4  A    between atoms: C21_27  and  C22_28 
ROOT
HETATM    1  C12   D T   1       9.967  -3.431  -1.755  1.00 23.69     0.021 A 
HETATM    2  C13   D T   1      10.077  -4.499  -0.858  1.00 23.69    -0.000 A 
HETATM    3  C14   D T   1       9.821  -5.838  -1.166  1.00 23.69     0.016 A 
HETATM    4  C15   D T   1       9.595  -3.746  -3.115  1.00 23.69    -0.000 A 
HETATM    5  C16   D T   1       9.286  -5.076  -3.539  1.00 23.69     0.017 A 
HETATM    6  C17   D T   1       9.424  -6.166  -2.654  1.00 23.69     0.062 A 
HETATM    7  N4    D T   1       9.123  -7.499  -2.995  1.00 23.69    -0.294 N 
HETATM    8  C18   D T   1       8.723  -7.806  -4.390  1.00 23.69     0.134 C 
HETATM    9  C19   D T   1       9.257  -8.575  -2.043  1.00 23.69     0.261 A 
HETATM   10  O1    D T   1       9.013  -9.748  -2.351  1.00 23.69    -0.267 OA
HETATM   11  C20   D T   1       9.641  -8.259  -0.724  1.00 23.69     0.061 A 
HETATM   12  C21   D T   1       9.926  -6.926  -0.269  1.00 23.69     0.006 A 
ENDROOT
BRANCH   1  13
HETATM   13  C5    D T   1      10.274  -1.963  -1.321  1.00 23.69     0.338 C 
HETATM   14  N3    D T   1       9.440  -1.553  -0.143  1.00 23.69     0.628 N 
BRANCH  13  15
HETATM   15  C4    D T   1      11.742  -1.922  -0.798  1.00 23.69     0.100 A 
HETATM   16  N1    D T   1      12.006  -1.857   0.582  1.00 23.69    -0.308 N 
HETATM   17  C1    D T   1      11.124  -1.855   1.733  1.00 23.69     0.132 C 
HETATM   18  C2    D T   1      13.367  -1.830   0.650  1.00 23.69     0.178 A 
HETATM   19  N2    D T   1      13.983  -1.856  -0.501  1.00 23.69    -0.223 NA
HETATM   20  C3    D T   1      12.977  -1.903  -1.422  1.00 23.69     0.116 A 
ENDBRANCH  13  15
BRANCH  13  21
HETATM   21  C6    D T   1      10.085  -0.969  -2.562  1.00 23.69     0.003 A 
HETATM   22  C7    D T   1      11.058  -0.886  -3.652  1.00 23.69     0.051 A 
HETATM   23  C8    D T   1      10.873   0.030  -4.745  1.00 23.69    -0.010 A 
HETATM   24  C9    D T   1       9.697   0.826  -4.810  1.00 23.69     0.054 A 
HETATM   25 CL1    D T   1       9.475   1.878  -6.125  1.00 23.69    -0.083 Cl
HETATM   26  C10   D T   1       8.728   0.767  -3.752  1.00 23.69     0.011 A 
HETATM   27  C11   D T   1       8.911  -0.121  -2.676  1.00 23.69    -0.005 A 
ENDBRANCH  13  21
ENDBRANCH   1  13
BRANCH  12  28
HETATM   28  C22   D T   1      10.314  -6.785   1.159  1.00 23.69     0.001 A 
HETATM   29  C23   D T   1       9.423  -6.207   2.093  1.00 23.69     0.011 A 
HETATM   30  C24   D T   1       9.782  -6.083   3.487  1.00 23.69     0.058 A 
HETATM   31 CL2    D T   1       8.704  -5.410   4.603  1.00 23.69    -0.082 Cl
HETATM   32  C25   D T   1      11.094  -6.508   3.934  1.00 23.69     0.011 A 
HETATM   33  C26   D T   1      12.003  -7.088   2.970  1.00 23.69     0.001 A 
HETATM   34  C27   D T   1      11.611  -7.214   1.585  1.00 23.69     0.000 A 
ENDBRANCH  12  28
TORSDOF 4
ENDMDL
MODEL 4
REMARK VINA RESULT:      -6.8      3.505      7.081
REMARK  4 active torsions:
REMARK  status: ('A' for Active; 'I' for Inactive)
REMARK    1  A    between atoms: C4_6  and  C5_7 
REMARK    2  A    between atoms: C5_7  and  C6_8 
REMARK    3  A    between atoms: C5_7  and  C12_16 
REMARK    4  A    between atoms: C21_27  and  C22_28 
ROOT
HETATM    1  C12   D T   1       9.431  -5.276  -0.790  1.00 23.69     0.021 A 
HETATM    2  C13   D T   1       9.436  -5.365  -2.186  1.00 23.69    -0.000 A 
HETATM    3  C14   D T   1       9.107  -4.324  -3.059  1.00 23.69     0.016 A 
HETATM    4  C15   D T   1       9.093  -3.997  -0.210  1.00 23.69    -0.000 A 
HETATM    5  C16   D T   1       8.717  -2.869  -1.002  1.00 23.69     0.017 A 
HETATM    6  C17   D T   1       8.748  -2.934  -2.412  1.00 23.69     0.062 A 
HETATM    7  N4    D T   1       8.376  -1.871  -3.257  1.00 23.69    -0.294 N 
HETATM    8  C18   D T   1       8.012  -0.568  -2.647  1.00 23.69     0.134 C 
HETATM    9  C19   D T   1       8.402  -1.998  -4.694  1.00 23.69     0.261 A 
HETATM   10  O1    D T   1       8.095  -1.056  -5.435  1.00 23.69    -0.267 OA
HETATM   11  C20   D T   1       8.753  -3.245  -5.250  1.00 23.69     0.061 A 
HETATM   12  C21   D T   1       9.105  -4.400  -4.471  1.00 23.69     0.006 A 
ENDROOT
BRANCH   1  13
HETATM   13  C5    D T   1       9.814  -6.495   0.108  1.00 23.69     0.338 C 
HETATM   14  N3    D T   1       9.349  -6.304   1.521  1.00 23.69     0.628 N 
BRANCH  13  15
HETATM   15  C4    D T   1       9.016  -7.731  -0.407  1.00 23.69     0.100 A 
HETATM   16  N1    D T   1       8.842  -8.858   0.415  1.00 23.69    -0.308 N 
HETATM   17  C1    D T   1       9.252  -9.132   1.778  1.00 23.69     0.132 C 
HETATM   18  C2    D T   1       8.118  -9.715  -0.361  1.00 23.69     0.178 A 
HETATM   19  N2    D T   1       7.832  -9.277  -1.557  1.00 23.69    -0.223 NA
HETATM   20  C3    D T   1       8.398  -8.036  -1.607  1.00 23.69     0.116 A 
ENDBRANCH  13  15
BRANCH  13  21
HETATM   21  C6    D T   1      11.391  -6.764   0.029  1.00 23.69     0.003 A 
HETATM   22  C7    D T   1      12.371  -5.837   0.598  1.00 23.69     0.051 A 
HETATM   23  C8    D T   1      13.782  -6.094   0.496  1.00 23.69    -0.010 A 
HETATM   24  C9    D T   1      14.242  -7.296  -0.108  1.00 23.69     0.054 A 
HETATM   25 CL1    D T   1      15.910  -7.603  -0.190  1.00 23.69    -0.083 Cl
HETATM   26  C10   D T   1      13.302  -8.221  -0.677  1.00 23.69     0.011 A 
HETATM   27  C11   D T   1      11.920  -7.967  -0.588  1.00 23.69    -0.005 A 
ENDBRANCH  13  21
ENDBRANCH   1  13
BRANCH  12  28
HETATM   28  C22   D T   1       9.445  -5.631  -5.232  1.00 23.69     0.001 A 
HETATM   29  C23   D T   1       8.805  -6.858  -4.938  1.00 23.69     0.011 A 
HETATM   30  C24   D T   1       9.113  -8.056  -5.685  1.00 23.69     0.058 A 
HETATM   31 CL2    D T   1       8.329  -9.515  -5.342  1.00 23.69    -0.082 Cl
HETATM   32  C25   D T   1      10.128  -8.021  -6.718  1.00 23.69     0.011 A 
HETATM   33  C26   D T   1      10.786  -6.764  -7.005  1.00 23.69     0.001 A 
HETATM   34  C27   D T   1      10.446  -5.578  -6.253  1.00 23.69     0.000 A 
ENDBRANCH  12  28
TORSDOF 4
ENDMDL
MODEL 5
REMARK VINA RESULT:      -6.8      1.284      1.628
REMARK  4 active torsions:
REMARK  status: ('A' for Active; 'I' for Inactive)
REMARK    1  A    between atoms: C4_6  and  C5_7 
REMARK    2  A    between atoms: C5_7  and  C6_8 
REMARK    3  A    between atoms: C5_7  and  C12_16 
REMARK    4  A    between atoms: C21_27  and  C22_28 
ROOT
HETATM    1  C12   D T   1      10.128  -3.963  -2.761  1.00 23.69     0.021 A 
HETATM    2  C13   D T   1      10.059  -4.752  -1.608  1.00 23.69    -0.000 A 
HETATM    3  C14   D T   1       9.644  -6.087  -1.571  1.00 23.69     0.016 A 
HETATM    4  C15   D T   1       9.774  -4.590  -4.014  1.00 23.69    -0.000 A 
HETATM    5  C16   D T   1       9.312  -5.940  -4.094  1.00 23.69     0.017 A 
HETATM    6  C17   D T   1       9.268  -6.757  -2.945  1.00 23.69     0.062 A 
HETATM    7  N4    D T   1       8.810  -8.089  -2.944  1.00 23.69    -0.294 N 
HETATM    8  C18   D T   1       8.431  -8.715  -4.235  1.00 23.69     0.134 C 
HETATM    9  C19   D T   1       8.762  -8.875  -1.735  1.00 23.69     0.261 A 
HETATM   10  O1    D T   1       8.379 -10.051  -1.740  1.00 23.69    -0.267 OA
HETATM   11  C20   D T   1       9.129  -8.259  -0.520  1.00 23.69     0.061 A 
HETATM   12  C21   D T   1       9.567  -6.895  -0.413  1.00 23.69     0.006 A 
ENDROOT
BRANCH   1  13
HETATM   13  C5    D T   1      10.606  -2.478  -2.708  1.00 23.69     0.338 C 
HETATM   14  N3    D T   1      11.423  -2.119  -3.915  1.00 23.69     0.628 N 
BRANCH  13  15
HETATM   15  C4    D T   1       9.342  -1.570  -2.803  1.00 23.69     0.100 A 
HETATM   16  N1    D T   1       9.465  -0.210  -3.138  1.00 23.69    -0.308 N 
HETATM   17  C1    D T   1      10.619   0.599  -3.481  1.00 23.69     0.132 C 
HETATM   18  C2    D T   1       8.180   0.246  -3.116  1.00 23.69     0.178 A 
HETATM   19  N2    D T   1       7.279  -0.644  -2.799  1.00 23.69    -0.223 NA
HETATM   20  C3    D T   1       7.993  -1.788  -2.588  1.00 23.69     0.116 A 
ENDBRANCH  13  15
BRANCH  13  21
HETATM   21  C6    D T   1      11.402  -2.202  -1.346  1.00 23.69     0.003 A 
HETATM   22  C7    D T   1      12.852  -2.001  -1.314  1.00 23.69     0.051 A 
HETATM   23  C8    D T   1      13.543  -1.775  -0.074  1.00 23.69    -0.010 A 
HETATM   24  C9    D T   1      12.810  -1.679   1.139  1.00 23.69     0.054 A 
HETATM   25 CL1    D T   1      13.636  -1.377   2.592  1.00 23.69    -0.083 Cl
HETATM   26  C10   D T   1      11.387  -1.876   1.138  1.00 23.69     0.011 A 
HETATM   27  C11   D T   1      10.707  -2.108  -0.074  1.00 23.69    -0.005 A 
ENDBRANCH  13  21
ENDBRANCH   1  13
BRANCH  12  28
HETATM   28  C22   D T   1       9.912  -6.417   0.952  1.00 23.69     0.001 A 
HETATM   29  C23   D T   1      10.974  -7.010   1.674  1.00 23.69     0.011 A 
HETATM   30  C24   D T   1      11.331  -6.540   2.993  1.00 23.69     0.058 A 
HETATM   31 CL2    D T   1      12.615  -7.239   3.843  1.00 23.69    -0.082 Cl
HETATM   32  C25   D T   1      10.562  -5.480   3.613  1.00 23.69     0.011 A 
HETATM   33  C26   D T   1       9.470  -4.887   2.872  1.00 23.69     0.001 A 
HETATM   34  C27   D T   1       9.146  -5.367   1.548  1.00 23.69     0.000 A 
ENDBRANCH  12  28
TORSDOF 4
ENDMDL
MODEL 6
REMARK VINA RESULT:      -6.8      3.372      5.791
REMARK  4 active torsions:
REMARK  status: ('A' for Active; 'I' for Inactive)
REMARK    1  A    between atoms: C4_6  and  C5_7 
REMARK    2  A    between atoms: C5_7  and  C6_8 
REMARK    3  A    between atoms: C5_7  and  C12_16 
REMARK    4  A    between atoms: C21_27  and  C22_28 
ROOT
HETATM    1  C12   D T   1      10.931  -4.323   1.158  1.00 23.69     0.021 A 
HETATM    2  C13   D T   1      10.400  -5.125   0.142  1.00 23.69    -0.000 A 
HETATM    3  C14   D T   1       9.846  -6.395   0.327  1.00 23.69     0.016 A 
HETATM    4  C15   D T   1      10.866  -4.835   2.507  1.00 23.69    -0.000 A 
HETATM    5  C16   D T   1      10.344  -6.130   2.813  1.00 23.69     0.017 A 
HETATM    6  C17   D T   1       9.777  -6.937   1.804  1.00 23.69     0.062 A 
HETATM    7  N4    D T   1       9.259  -8.227   2.026  1.00 23.69    -0.294 N 
HETATM    8  C18   D T   1       9.217  -8.750   3.414  1.00 23.69     0.134 C 
HETATM    9  C19   D T   1       8.712  -9.022   0.953  1.00 23.69     0.261 A 
HETATM   10  O1    D T   1       8.238 -10.147   1.155  1.00 23.69    -0.267 OA
HETATM   11  C20   D T   1       8.761  -8.503  -0.357  1.00 23.69     0.061 A 
HETATM   12  C21   D T   1       9.309  -7.218  -0.691  1.00 23.69     0.006 A 
ENDROOT
BRANCH   1  13
HETATM   13  C5    D T   1      11.530  -2.913   0.857  1.00 23.69     0.338 C 
HETATM   14  N3    D T   1      11.308  -1.966   1.999  1.00 23.69     0.628 N 
BRANCH  13  15
HETATM   15  C4    D T   1      13.079  -3.067   0.767  1.00 23.69     0.100 A 
HETATM   16  N1    D T   1      13.915  -1.945   0.904  1.00 23.69    -0.308 N 
HETATM   17  C1    D T   1      13.623  -0.550   1.170  1.00 23.69     0.132 C 
HETATM   18  C2    D T   1      15.171  -2.459   0.764  1.00 23.69     0.178 A 
HETATM   19  N2    D T   1      15.225  -3.745   0.545  1.00 23.69    -0.223 NA
HETATM   20  C3    D T   1      13.919  -4.141   0.533  1.00 23.69     0.116 A 
ENDBRANCH  13  15
BRANCH  13  21
HETATM   21  C6    D T   1      10.936  -2.342  -0.516  1.00 23.69     0.003 A 
HETATM   22  C7    D T   1      11.693  -2.374  -1.769  1.00 23.69     0.051 A 
HETATM   23  C8    D T   1      11.142  -1.837  -2.983  1.00 23.69    -0.010 A 
HETATM   24  C9    D T   1       9.818  -1.321  -2.994  1.00 23.69     0.054 A 
HETATM   25 CL1    D T   1       9.168  -0.721  -4.443  1.00 23.69    -0.083 Cl
HETATM   26  C10   D T   1       9.054  -1.273  -1.778  1.00 23.69     0.011 A 
HETATM   27  C11   D T   1       9.594  -1.790  -0.585  1.00 23.69    -0.005 A 
ENDBRANCH  13  21
ENDBRANCH   1  13
BRANCH  12  28
HETATM   28  C22   D T   1       9.277  -6.839  -2.127  1.00 23.69     0.001 A 
HETATM   29  C23   D T   1       9.047  -7.817  -3.124  1.00 23.69     0.011 A 
HETATM   30  C24   D T   1       8.992  -7.456  -4.522  1.00 23.69     0.058 A 
HETATM   31 CL2    D T   1       8.696  -8.626  -5.707  1.00 23.69    -0.082 Cl
HETATM   32  C25   D T   1       9.227  -6.083  -4.922  1.00 23.69     0.011 A 
HETATM   33  C26   D T   1       9.473  -5.091  -3.898  1.00 23.69     0.001 A 
HETATM   34  C27   D T   1       9.506  -5.478  -2.506  1.00 23.69     0.000 A 
ENDBRANCH  12  28
TORSDOF 4
ENDMDL
MODEL 7
REMARK VINA RESULT:      -6.7      3.551      6.614
REMARK  4 active torsions:
REMARK  status: ('A' for Active; 'I' for Inactive)
REMARK    1  A    between atoms: C4_6  and  C5_7 
REMARK    2  A    between atoms: C5_7  and  C6_8 
REMARK    3  A    between atoms: C5_7  and  C12_16 
REMARK    4  A    between atoms: C21_27  and  C22_28 
ROOT
HETATM    1  C12   D T   1      10.942  -3.452   0.159  1.00 23.69     0.021 A 
HETATM    2  C13   D T   1      10.595  -3.000  -1.119  1.00 23.69    -0.000 A 
HETATM    3  C14   D T   1      10.147  -3.812  -2.164  1.00 23.69     0.016 A 
HETATM    4  C15   D T   1      10.790  -4.863   0.425  1.00 23.69    -0.000 A 
HETATM    5  C16   D T   1      10.364  -5.792  -0.574  1.00 23.69     0.017 A 
HETATM    6  C17   D T   1       9.980  -5.347  -1.857  1.00 23.69     0.062 A 
HETATM    7  N4    D T   1       9.565  -6.202  -2.895  1.00 23.69    -0.294 N 
HETATM    8  C18   D T   1       9.432  -7.653  -2.615  1.00 23.69     0.134 C 
HETATM    9  C19   D T   1       9.207  -5.698  -4.199  1.00 23.69     0.261 A 
HETATM   10  O1    D T   1       8.823  -6.449  -5.103  1.00 23.69    -0.267 OA
HETATM   11  C20   D T   1       9.339  -4.315  -4.441  1.00 23.69     0.061 A 
HETATM   12  C21   D T   1       9.795  -3.369  -3.461  1.00 23.69     0.006 A 
ENDROOT
BRANCH   1  13
HETATM   13  C5    D T   1      11.434  -2.469   1.268  1.00 23.69     0.338 C 
HETATM   14  N3    D T   1      10.354  -1.509   1.670  1.00 23.69     0.628 N 
BRANCH  13  15
HETATM   15  C4    D T   1      11.714  -3.308   2.552  1.00 23.69     0.100 A 
HETATM   16  N1    D T   1      12.877  -4.093   2.650  1.00 23.69    -0.308 N 
HETATM   17  C1    D T   1      13.994  -4.280   1.745  1.00 23.69     0.132 C 
HETATM   18  C2    D T   1      12.774  -4.672   3.881  1.00 23.69     0.178 A 
HETATM   19  N2    D T   1      11.698  -4.363   4.552  1.00 23.69    -0.223 NA
HETATM   20  C3    D T   1      11.016  -3.515   3.728  1.00 23.69     0.116 A 
ENDBRANCH  13  15
BRANCH  13  21
HETATM   21  C6    D T   1      12.759  -1.710   0.786  1.00 23.69     0.003 A 
HETATM   22  C7    D T   1      13.366  -1.953  -0.524  1.00 23.69     0.051 A 
HETATM   23  C8    D T   1      14.567  -1.271  -0.924  1.00 23.69    -0.010 A 
HETATM   24  C9    D T   1      15.146  -0.296  -0.068  1.00 23.69     0.054 A 
HETATM   25 CL1    D T   1      16.545   0.526  -0.568  1.00 23.69    -0.083 Cl
HETATM   26  C10   D T   1      14.574  -0.040   1.224  1.00 23.69     0.011 A 
HETATM   27  C11   D T   1      13.403  -0.713   1.623  1.00 23.69    -0.005 A 
ENDBRANCH  13  21
ENDBRANCH   1  13
BRANCH  12  28
HETATM   28  C22   D T   1       9.873  -1.950  -3.898  1.00 23.69     0.001 A 
HETATM   29  C23   D T   1       8.825  -1.372  -4.652  1.00 23.69     0.011 A 
HETATM   30  C24   D T   1       8.880   0.012  -5.064  1.00 23.69     0.058 A 
HETATM   31 CL2    D T   1       7.615   0.703  -5.948  1.00 23.69    -0.082 Cl
HETATM   32  C25   D T   1      10.047   0.812  -4.749  1.00 23.69     0.011 A 
HETATM   33  C26   D T   1      11.119   0.210  -3.987  1.00 23.69     0.001 A 
HETATM   34  C27   D T   1      11.029  -1.172  -3.574  1.00 23.69     0.000 A 
ENDBRANCH  12  28
TORSDOF 4
ENDMDL
MODEL 8
REMARK VINA RESULT:      -6.5     20.084     21.822
REMARK  4 active torsions:
REMARK  status: ('A' for Active; 'I' for Inactive)
REMARK    1  A    between atoms: C4_6  and  C5_7 
REMARK    2  A    between atoms: C5_7  and  C6_8 
REMARK    3  A    between atoms: C5_7  and  C12_16 
REMARK    4  A    between atoms: C21_27  and  C22_28 
ROOT
HETATM    1  C12   D T   1       1.549  11.410 -10.481  1.00 23.69     0.021 A 
HETATM    2  C13   D T   1       2.082  11.259 -11.766  1.00 23.69    -0.000 A 
HETATM    3  C14   D T   1       3.374  11.629 -12.150  1.00 23.69     0.016 A 
HETATM    4  C15   D T   1       2.417  11.961  -9.466  1.00 23.69    -0.000 A 
HETATM    5  C16   D T   1       3.748  12.397  -9.748  1.00 23.69     0.017 A 
HETATM    6  C17   D T   1       4.310  12.221 -11.030  1.00 23.69     0.062 A 
HETATM    7  N4    D T   1       5.606  12.639 -11.386  1.00 23.69    -0.294 N 
HETATM    8  C18   D T   1       6.481  13.221 -10.338  1.00 23.69     0.134 C 
HETATM    9  C19   D T   1       6.125  12.458 -12.720  1.00 23.69     0.261 A 
HETATM   10  O1    D T   1       7.271  12.807 -13.025  1.00 23.69    -0.267 OA
HETATM   11  C20   D T   1       5.275  11.901 -13.699  1.00 23.69     0.061 A 
HETATM   12  C21   D T   1       3.924  11.484 -13.444  1.00 23.69     0.006 A 
ENDROOT
BRANCH   1  13
HETATM   13  C5    D T   1       0.091  10.966 -10.143  1.00 23.69     0.338 C 
HETATM   14  N3    D T   1       0.044  10.142  -8.891  1.00 23.69     0.628 N 
BRANCH  13  15
HETATM   15  C4    D T   1      -0.727  12.249  -9.802  1.00 23.69     0.100 A 
HETATM   16  N1    D T   1      -0.958  13.228 -10.785  1.00 23.69    -0.308 N 
HETATM   17  C1    D T   1      -0.596  13.292 -12.188  1.00 23.69     0.132 C 
HETATM   18  C2    D T   1      -1.682  14.180 -10.130  1.00 23.69     0.178 A 
HETATM   19  N2    D T   1      -1.920  13.929  -8.871  1.00 23.69    -0.223 NA
HETATM   20  C3    D T   1      -1.317  12.725  -8.646  1.00 23.69     0.116 A 
ENDBRANCH  13  15
BRANCH  13  21
HETATM   21  C6    D T   1      -0.555  10.196 -11.390  1.00 23.69     0.003 A 
HETATM   22  C7    D T   1      -2.000  10.012 -11.531  1.00 23.69     0.051 A 
HETATM   23  C8    D T   1      -2.552   9.299 -12.652  1.00 23.69    -0.010 A 
HETATM   24  C9    D T   1      -1.694   8.817 -13.677  1.00 23.69     0.054 A 
HETATM   25 CL1    D T   1      -2.362   8.007 -15.011  1.00 23.69    -0.083 Cl
HETATM   26  C10   D T   1      -0.271   8.980 -13.561  1.00 23.69     0.011 A 
HETATM   27  C11   D T   1       0.273   9.669 -12.460  1.00 23.69    -0.005 A 
ENDBRANCH  13  21
ENDBRANCH   1  13
BRANCH  12  28
HETATM   28  C22   D T   1       3.178  10.920 -14.600  1.00 23.69     0.001 A 
HETATM   29  C23   D T   1       2.296  11.731 -15.351  1.00 23.69     0.011 A 
HETATM   30  C24   D T   1       1.582  11.199 -16.489  1.00 23.69     0.058 A 
HETATM   31 CL2    D T   1       0.544  12.179 -17.396  1.00 23.69    -0.082 Cl
HETATM   32  C25   D T   1       1.727   9.800 -16.841  1.00 23.69     0.011 A 
HETATM   33  C26   D T   1       2.623   8.975 -16.061  1.00 23.69     0.001 A 
HETATM   34  C27   D T   1       3.336   9.539 -14.938  1.00 23.69     0.000 A 
ENDBRANCH  12  28
TORSDOF 4
ENDMDL
MODEL 9
REMARK VINA RESULT:      -6.4      3.878      6.523
REMARK  4 active torsions:
REMARK  status: ('A' for Active; 'I' for Inactive)
REMARK    1  A    between atoms: C4_6  and  C5_7 
REMARK    2  A    between atoms: C5_7  and  C6_8 
REMARK    3  A    between atoms: C5_7  and  C12_16 
REMARK    4  A    between atoms: C21_27  and  C22_28 
ROOT
HETATM    1  C12   D T   1      10.450  -3.207   0.057  1.00 23.69     0.021 A 
HETATM    2  C13   D T   1      11.456  -4.154   0.275  1.00 23.69    -0.000 A 
HETATM    3  C14   D T   1      12.464  -4.050   1.239  1.00 23.69     0.016 A 
HETATM    4  C15   D T   1      10.433  -2.050   0.921  1.00 23.69    -0.000 A 
HETATM    5  C16   D T   1      11.426  -1.825   1.925  1.00 23.69     0.017 A 
HETATM    6  C17   D T   1      12.427  -2.786   2.178  1.00 23.69     0.062 A 
HETATM    7  N4    D T   1      13.446  -2.628   3.136  1.00 23.69    -0.294 N 
HETATM    8  C18   D T   1      13.429  -1.424   4.004  1.00 23.69     0.134 C 
HETATM    9  C19   D T   1      14.463  -3.632   3.338  1.00 23.69     0.261 A 
HETATM   10  O1    D T   1      15.344  -3.500   4.196  1.00 23.69    -0.267 OA
HETATM   11  C20   D T   1      14.458  -4.768   2.503  1.00 23.69     0.061 A 
HETATM   12  C21   D T   1      13.488  -4.998   1.468  1.00 23.69     0.006 A 
ENDROOT
BRANCH   1  13
HETATM   13  C5    D T   1       9.362  -3.408  -1.045  1.00 23.69     0.338 C 
HETATM   14  N3    D T   1       8.124  -2.617  -0.746  1.00 23.69     0.628 N 
BRANCH  13  15
HETATM   15  C4    D T   1       9.913  -2.796  -2.368  1.00 23.69     0.100 A 
HETATM   16  N1    D T   1       9.054  -2.568  -3.458  1.00 23.69    -0.308 N 
HETATM   17  C1    D T   1       7.627  -2.765  -3.620  1.00 23.69     0.132 C 
HETATM   18  C2    D T   1       9.875  -2.044  -4.413  1.00 23.69     0.178 A 
HETATM   19  N2    D T   1      11.128  -1.930  -4.067  1.00 23.69    -0.223 NA
HETATM   20  C3    D T   1      11.172  -2.408  -2.790  1.00 23.69     0.116 A 
ENDBRANCH  13  15
BRANCH  13  21
HETATM   21  C6    D T   1       9.045  -4.967  -1.229  1.00 23.69     0.003 A 
HETATM   22  C7    D T   1       9.672  -5.773  -2.279  1.00 23.69     0.051 A 
HETATM   23  C8    D T   1       9.354  -7.167  -2.434  1.00 23.69    -0.010 A 
HETATM   24  C9    D T   1       8.467  -7.797  -1.520  1.00 23.69     0.054 A 
HETATM   25 CL1    D T   1       8.127  -9.452  -1.694  1.00 23.69    -0.083 Cl
HETATM   26  C10   D T   1       7.835  -7.029  -0.483  1.00 23.69     0.011 A 
HETATM   27  C11   D T   1       8.137  -5.662  -0.334  1.00 23.69    -0.005 A 
ENDBRANCH  13  21
ENDBRANCH   1  13
BRANCH  12  28
HETATM   28  C22   D T   1      13.642  -6.253   0.686  1.00 23.69     0.001 A 
HETATM   29  C23   D T   1      12.568  -7.167   0.575  1.00 23.69     0.011 A 
HETATM   30  C24   D T   1      12.700  -8.380  -0.201  1.00 23.69     0.058 A 
HETATM   31 CL2    D T   1      11.406  -9.459  -0.347  1.00 23.69    -0.082 Cl
HETATM   32  C25   D T   1      13.964  -8.696  -0.834  1.00 23.69     0.011 A 
HETATM   33  C26   D T   1      15.060  -7.761  -0.706  1.00 23.69     0.001 A 
HETATM   34  C27   D T   1      14.895  -6.548   0.062  1.00 23.69     0.000 A 
ENDBRANCH  12  28
TORSDOF 4
ENDMDL
