MODEL 1
REMARK VINA RESULT:      -7.5      0.000      0.000
REMARK  6 active torsions:
REMARK  status: ('A' for Active; 'I' for Inactive)
REMARK    1  A    between atoms: NBC_2  and  CBB_4 
REMARK    2  A    between atoms: CBB_4  and  CBA_5 
REMARK    3  A    between atoms: CBA_5  and  CAY_6 
REMARK    4  A    between atoms: CAY_6  and  NAH_7 
REMARK    5  A    between atoms: CAG_15  and  CAI_16 
REMARK    6  A    between atoms: CAJ_22  and  CAK_23 
ROOT
HETATM    1  CAI   D T1001       9.546  -6.244  -5.733  1.00 35.40     0.064 A 
HETATM    2  CAT   D T1001      10.643  -6.238  -6.740  1.00 36.13     0.282 A 
HETATM    3  OAZ   D T1001      11.229  -5.174  -7.154  1.00 33.53    -0.265 OA
HETATM    4  NAU   D T1001      10.917  -7.451  -7.267  1.00 33.87    -0.169 NA
HETATM    5  CAV   D T1001      10.126  -8.312  -6.611  1.00 34.90     0.282 A 
HETATM    6  OAX   D T1001      10.158  -9.561  -6.870  1.00 35.00    -0.265 OA
HETATM    7  CAJ   D T1001       9.234  -7.679  -5.614  1.00 32.88     0.064 A 
ENDROOT
BRANCH   1   8
HETATM    8  CAG   D T1001       9.115  -5.057  -4.912  1.00 35.34     0.023 A 
HETATM    9  CAW   D T1001       8.290  -4.098  -5.451  1.00 34.78     0.076 A 
HETATM   10  NAH   D T1001       8.036  -3.231  -4.424  1.00 36.88    -0.326 N 
HETATM   11  CAE   D T1001       8.628  -3.633  -3.291  1.00 36.88     0.060 A 
HETATM   12  CAF   D T1001       8.649  -3.125  -1.989  1.00 37.02     0.017 A 
HETATM   13  CAD   D T1001       9.298  -4.830  -3.557  1.00 36.79     0.017 A 
HETATM   14  CAA   D T1001       9.360  -3.773  -0.999  1.00 37.13     0.002 A 
HETATM   15  CAB   D T1001      10.057  -4.961  -1.278  1.00 38.67     0.000 A 
HETATM   16  CAC   D T1001      10.044  -5.488  -2.574  1.00 38.70     0.002 A 
BRANCH  10  17
HETATM   17  CAY   D T1001       7.197  -2.056  -4.562  1.00 39.32     0.108 C 
BRANCH  17  18
HETATM   18  CBA   D T1001       7.542  -1.267  -5.803  1.00 40.15     0.048 C 
BRANCH  18  19
HETATM   19  CBB   D T1001       8.347  -0.095  -5.264  1.00 46.58     0.099 C 
BRANCH  19  20
HETATM   20  NBC   D T1001       8.419   0.976  -6.255  1.00 44.62    -0.365 N 
HETATM   21  CBD   D T1001       9.520   1.918  -6.086  1.00 48.91     0.121 C 
HETATM   22  CBE   D T1001       7.511   1.107  -7.385  1.00 49.55     0.121 C 
ENDBRANCH  19  20
ENDBRANCH  18  19
ENDBRANCH  17  18
ENDBRANCH  10  17
ENDBRANCH   1   8
BRANCH   7  23
HETATM   23  CAK   D T1001       8.275  -8.415  -4.727  1.00 34.11     0.025 A 
HETATM   24  CAM   D T1001       8.434  -8.728  -3.362  1.00 33.58     0.019 A 
HETATM   25  CAP   D T1001       9.438  -8.462  -2.423  1.00 31.36     0.002 A 
HETATM   26  CAN   D T1001       7.273  -9.438  -3.053  1.00 34.83     0.081 A 
HETATM   27  CAQ   D T1001       9.278  -8.929  -1.123  1.00 33.71     0.000 A 
HETATM   28  CAR   D T1001       8.119  -9.635  -0.795  1.00 32.72     0.002 A 
HETATM   29  CAS   D T1001       7.103  -9.895  -1.732  1.00 35.56     0.019 A 
HETATM   30  NAO   D T1001       6.482  -9.515  -4.172  1.00 33.95    -0.244 NA
HETATM   31  CAL   D T1001       7.065  -8.889  -5.231  1.00 33.68     0.099 A 
ENDBRANCH   7  23
TORSDOF 6
ENDMDL
MODEL 2
REMARK VINA RESULT:      -7.5      1.733      4.458
REMARK  6 active torsions:
REMARK  status: ('A' for Active; 'I' for Inactive)
REMARK    1  A    between atoms: NBC_2  and  CBB_4 
REMARK    2  A    between atoms: CBB_4  and  CBA_5 
REMARK    3  A    between atoms: CBA_5  and  CAY_6 
REMARK    4  A    between atoms: CAY_6  and  NAH_7 
REMARK    5  A    between atoms: CAG_15  and  CAI_16 
REMARK    6  A    between atoms: CAJ_22  and  CAK_23 
ROOT
HETATM    1  CAI   D T1001       9.603  -6.337  -5.545  1.00 35.40     0.064 A 
HETATM    2  CAT   D T1001      10.595  -6.245  -6.652  1.00 36.13     0.282 A 
HETATM    3  OAZ   D T1001      11.188  -5.160  -6.994  1.00 33.53    -0.265 OA
HETATM    4  NAU   D T1001      10.757  -7.392  -7.347  1.00 33.87    -0.169 NA
HETATM    5  CAV   D T1001       9.993  -8.299  -6.721  1.00 34.90     0.282 A 
HETATM    6  OAX   D T1001       9.940  -9.506  -7.130  1.00 35.00    -0.265 OA
HETATM    7  CAJ   D T1001       9.236  -7.764  -5.568  1.00 32.88     0.064 A 
ENDROOT
BRANCH   1   8
HETATM    8  CAG   D T1001       9.313  -5.247  -4.547  1.00 35.34     0.023 A 
HETATM    9  CAW   D T1001       9.864  -5.288  -3.288  1.00 34.78     0.076 A 
HETATM   10  NAH   D T1001       9.468  -4.124  -2.690  1.00 36.88    -0.326 N 
HETATM   11  CAE   D T1001       8.744  -3.369  -3.526  1.00 36.88     0.060 A 
HETATM   12  CAF   D T1001       8.149  -2.110  -3.409  1.00 37.02     0.017 A 
HETATM   13  CAD   D T1001       8.658  -4.042  -4.749  1.00 36.79     0.017 A 
HETATM   14  CAA   D T1001       7.450  -1.567  -4.469  1.00 37.13     0.002 A 
HETATM   15  CAB   D T1001       7.341  -2.260  -5.687  1.00 38.67     0.000 A 
HETATM   16  CAC   D T1001       7.933  -3.520  -5.825  1.00 38.70     0.002 A 
BRANCH  10  17
HETATM   17  CAY   D T1001       9.834  -3.760  -1.334  1.00 39.32     0.108 C 
BRANCH  17  18
HETATM   18  CBA   D T1001      10.276  -4.963  -0.534  1.00 40.15     0.048 C 
BRANCH  18  19
HETATM   19  CBB   D T1001       9.127  -5.182   0.438  1.00 46.58     0.099 C 
BRANCH  19  20
HETATM   20  NBC   D T1001       9.633  -5.603   1.743  1.00 44.62    -0.365 N 
HETATM   21  CBD   D T1001      10.584  -6.709   1.722  1.00 48.91     0.121 C 
HETATM   22  CBE   D T1001       9.286  -4.959   3.000  1.00 49.55     0.121 C 
ENDBRANCH  19  20
ENDBRANCH  18  19
ENDBRANCH  17  18
ENDBRANCH  10  17
ENDBRANCH   1   8
BRANCH   7  23
HETATM   23  CAK   D T1001       8.334  -8.569  -4.681  1.00 34.11     0.025 A 
HETATM   24  CAM   D T1001       8.487  -8.824  -3.304  1.00 33.58     0.019 A 
HETATM   25  CAP   D T1001       9.434  -8.430  -2.350  1.00 31.36     0.002 A 
HETATM   26  CAN   D T1001       7.399  -9.642  -3.000  1.00 34.83     0.081 A 
HETATM   27  CAQ   D T1001       9.287  -8.873  -1.040  1.00 33.71     0.000 A 
HETATM   28  CAR   D T1001       8.199  -9.686  -0.718  1.00 32.72     0.002 A 
HETATM   29  CAS   D T1001       7.241 -10.076  -1.670  1.00 35.56     0.019 A 
HETATM   30  NAO   D T1001       6.650  -9.833  -4.135  1.00 33.95    -0.244 NA
HETATM   31  CAL   D T1001       7.193  -9.181  -5.199  1.00 33.68     0.099 A 
ENDBRANCH   7  23
TORSDOF 6
ENDMDL
MODEL 3
REMARK VINA RESULT:      -7.4     18.461     21.003
REMARK  6 active torsions:
REMARK  status: ('A' for Active; 'I' for Inactive)
REMARK    1  A    between atoms: NBC_2  and  CBB_4 
REMARK    2  A    between atoms: CBB_4  and  CBA_5 
REMARK    3  A    between atoms: CBA_5  and  CAY_6 
REMARK    4  A    between atoms: CAY_6  and  NAH_7 
REMARK    5  A    between atoms: CAG_15  and  CAI_16 
REMARK    6  A    between atoms: CAJ_22  and  CAK_23 
ROOT
HETATM    1  CAI   D T1001       1.747  10.286 -13.156  1.00 35.40     0.064 A 
HETATM    2  CAT   D T1001       0.640   9.805 -12.283  1.00 36.13     0.282 A 
HETATM    3  OAZ   D T1001      -0.555   9.589 -12.696  1.00 33.53    -0.265 OA
HETATM    4  NAU   D T1001       0.970   9.702 -10.978  1.00 33.87    -0.169 NA
HETATM    5  CAV   D T1001       2.276  10.001 -10.915  1.00 34.90     0.282 A 
HETATM    6  OAX   D T1001       2.901   9.978  -9.803  1.00 35.00    -0.265 OA
HETATM    7  CAJ   D T1001       2.879  10.367 -12.216  1.00 32.88     0.064 A 
ENDROOT
BRANCH   1   8
HETATM    8  CAG   D T1001       1.688  10.384 -14.658  1.00 35.34     0.023 A 
HETATM    9  CAW   D T1001       1.520   9.255 -15.425  1.00 34.78     0.076 A 
HETATM   10  NAH   D T1001       1.426   9.712 -16.711  1.00 36.88    -0.326 N 
HETATM   11  CAE   D T1001       1.488  11.050 -16.758  1.00 36.88     0.060 A 
HETATM   12  CAF   D T1001       1.410  11.976 -17.801  1.00 37.02     0.017 A 
HETATM   13  CAD   D T1001       1.615  11.521 -15.448  1.00 36.79     0.017 A 
HETATM   14  CAA   D T1001       1.503  13.329 -17.541  1.00 37.13     0.002 A 
HETATM   15  CAB   D T1001       1.660  13.797 -16.225  1.00 38.67     0.000 A 
HETATM   16  CAC   D T1001       1.737  12.886 -15.167  1.00 38.70     0.002 A 
BRANCH  10  17
HETATM   17  CAY   D T1001       1.241   8.840 -17.855  1.00 39.32     0.108 C 
BRANCH  17  18
HETATM   18  CBA   D T1001      -0.217   8.712 -18.228  1.00 40.15     0.048 C 
BRANCH  18  19
HETATM   19  CBB   D T1001      -0.456   7.210 -18.208  1.00 46.58     0.099 C 
BRANCH  19  20
HETATM   20  NBC   D T1001      -1.602   6.885 -17.361  1.00 44.62    -0.365 N 
HETATM   21  CBD   D T1001      -1.328   6.814 -15.930  1.00 48.91     0.121 C 
HETATM   22  CBE   D T1001      -2.956   6.691 -17.857  1.00 49.55     0.121 C 
ENDBRANCH  19  20
ENDBRANCH  18  19
ENDBRANCH  17  18
ENDBRANCH  10  17
ENDBRANCH   1   8
BRANCH   7  23
HETATM   23  CAK   D T1001       4.321  10.715 -12.429  1.00 34.11     0.025 A 
HETATM   24  CAM   D T1001       5.058  11.743 -11.809  1.00 33.58     0.019 A 
HETATM   25  CAP   D T1001       4.745  12.703 -10.838  1.00 31.36     0.002 A 
HETATM   26  CAN   D T1001       6.321  11.638 -12.393  1.00 34.83     0.081 A 
HETATM   27  CAQ   D T1001       5.733  13.595 -10.438  1.00 33.71     0.000 A 
HETATM   28  CAR   D T1001       7.004  13.499 -11.008  1.00 32.72     0.002 A 
HETATM   29  CAS   D T1001       7.326  12.531 -11.975  1.00 35.56     0.019 A 
HETATM   30  NAO   D T1001       6.317  10.596 -13.288  1.00 33.95    -0.244 NA
HETATM   31  CAL   D T1001       5.098   9.994 -13.336  1.00 33.68     0.099 A 
ENDBRANCH   7  23
TORSDOF 6
ENDMDL
MODEL 4
REMARK VINA RESULT:      -7.3      2.506      3.998
REMARK  6 active torsions:
REMARK  status: ('A' for Active; 'I' for Inactive)
REMARK    1  A    between atoms: NBC_2  and  CBB_4 
REMARK    2  A    between atoms: CBB_4  and  CBA_5 
REMARK    3  A    between atoms: CBA_5  and  CAY_6 
REMARK    4  A    between atoms: CAY_6  and  NAH_7 
REMARK    5  A    between atoms: CAG_15  and  CAI_16 
REMARK    6  A    between atoms: CAJ_22  and  CAK_23 
ROOT
HETATM    1  CAI   D T1001       9.843  -6.712  -1.640  1.00 35.40     0.064 A 
HETATM    2  CAT   D T1001      10.943  -6.871  -0.649  1.00 36.13     0.282 A 
HETATM    3  OAZ   D T1001      11.669  -5.903  -0.222  1.00 33.53    -0.265 OA
HETATM    4  NAU   D T1001      11.190  -8.152  -0.297  1.00 33.87    -0.169 NA
HETATM    5  CAV   D T1001      10.256  -8.881  -0.926  1.00 34.90     0.282 A 
HETATM    6  OAX   D T1001      10.207 -10.147  -0.785  1.00 35.00    -0.265 OA
HETATM    7  CAJ   D T1001       9.344  -8.091  -1.783  1.00 32.88     0.064 A 
ENDROOT
BRANCH   1   8
HETATM    8  CAG   D T1001       9.288  -5.395  -2.116  1.00 35.34     0.023 A 
HETATM    9  CAW   D T1001       8.997  -4.394  -1.219  1.00 34.78     0.076 A 
HETATM   10  NAH   D T1001       8.603  -3.334  -1.986  1.00 36.88    -0.326 N 
HETATM   11  CAE   D T1001       8.678  -3.624  -3.292  1.00 36.88     0.060 A 
HETATM   12  CAF   D T1001       8.422  -2.889  -4.453  1.00 37.02     0.017 A 
HETATM   13  CAD   D T1001       9.156  -4.932  -3.416  1.00 36.79     0.017 A 
HETATM   14  CAA   D T1001       8.597  -3.465  -5.696  1.00 37.13     0.002 A 
HETATM   15  CAB   D T1001       9.050  -4.790  -5.815  1.00 38.67     0.000 A 
HETATM   16  CAC   D T1001       9.314  -5.541  -4.665  1.00 38.70     0.002 A 
BRANCH  10  17
HETATM   17  CAY   D T1001       8.201  -2.055  -1.433  1.00 39.32     0.108 C 
BRANCH  17  18
HETATM   18  CBA   D T1001       9.297  -1.022  -1.561  1.00 40.15     0.048 C 
BRANCH  18  19
HETATM   19  CBB   D T1001       8.617   0.125  -2.292  1.00 46.58     0.099 C 
BRANCH  19  20
HETATM   20  NBC   D T1001       9.328   0.436  -3.530  1.00 44.62    -0.365 N 
HETATM   21  CBD   D T1001      10.733   0.044  -3.565  1.00 48.91     0.121 C 
HETATM   22  CBE   D T1001       8.710   1.043  -4.698  1.00 49.55     0.121 C 
ENDBRANCH  19  20
ENDBRANCH  18  19
ENDBRANCH  17  18
ENDBRANCH  10  17
ENDBRANCH   1   8
BRANCH   7  23
HETATM   23  CAK   D T1001       8.198  -8.654  -2.569  1.00 34.11     0.025 A 
HETATM   24  CAM   D T1001       8.146  -8.900  -3.956  1.00 33.58     0.019 A 
HETATM   25  CAP   D T1001       9.071  -8.750  -4.997  1.00 31.36     0.002 A 
HETATM   26  CAN   D T1001       6.853  -9.385  -4.153  1.00 34.83     0.081 A 
HETATM   27  CAQ   D T1001       8.687  -9.095  -6.287  1.00 33.71     0.000 A 
HETATM   28  CAR   D T1001       7.398  -9.589  -6.501  1.00 32.72     0.002 A 
HETATM   29  CAS   D T1001       6.470  -9.751  -5.458  1.00 35.56     0.019 A 
HETATM   30  NAO   D T1001       6.202  -9.432  -2.945  1.00 33.95    -0.244 NA
HETATM   31  CAL   D T1001       7.002  -8.991  -1.937  1.00 33.68     0.099 A 
ENDBRANCH   7  23
TORSDOF 6
ENDMDL
MODEL 5
REMARK VINA RESULT:      -7.1      4.357      7.400
REMARK  6 active torsions:
REMARK  status: ('A' for Active; 'I' for Inactive)
REMARK    1  A    between atoms: NBC_2  and  CBB_4 
REMARK    2  A    between atoms: CBB_4  and  CBA_5 
REMARK    3  A    between atoms: CBA_5  and  CAY_6 
REMARK    4  A    between atoms: CAY_6  and  NAH_7 
REMARK    5  A    between atoms: CAG_15  and  CAI_16 
REMARK    6  A    between atoms: CAJ_22  and  CAK_23 
ROOT
HETATM    1  CAI   D T1001      10.373  -3.805  -0.052  1.00 35.40     0.064 A 
HETATM    2  CAT   D T1001      10.022  -5.100   0.593  1.00 36.13     0.282 A 
HETATM    3  OAZ   D T1001       8.935  -5.742   0.367  1.00 33.53    -0.265 OA
HETATM    4  NAU   D T1001      10.909  -5.512   1.526  1.00 33.87    -0.169 NA
HETATM    5  CAV   D T1001      11.902  -4.612   1.496  1.00 34.90     0.282 A 
HETATM    6  OAX   D T1001      12.916  -4.728   2.261  1.00 35.00    -0.265 OA
HETATM    7  CAJ   D T1001      11.690  -3.505   0.537  1.00 32.88     0.064 A 
ENDROOT
BRANCH   1   8
HETATM    8  CAG   D T1001       9.624  -3.174  -1.197  1.00 35.34     0.023 A 
HETATM    9  CAW   D T1001       9.161  -1.883  -1.101  1.00 34.78     0.076 A 
HETATM   10  NAH   D T1001       8.616  -1.611  -2.325  1.00 36.88    -0.326 N 
HETATM   11  CAE   D T1001       8.760  -2.646  -3.163  1.00 36.88     0.060 A 
HETATM   12  CAF   D T1001       8.412  -2.852  -4.501  1.00 37.02     0.017 A 
HETATM   13  CAD   D T1001       9.444  -3.658  -2.483  1.00 36.79     0.017 A 
HETATM   14  CAA   D T1001       8.699  -4.052  -5.120  1.00 37.13     0.002 A 
HETATM   15  CAB   D T1001       9.360  -5.078  -4.423  1.00 38.67     0.000 A 
HETATM   16  CAC   D T1001       9.720  -4.890  -3.084  1.00 38.70     0.002 A 
BRANCH  10  17
HETATM   17  CAY   D T1001       8.005  -0.339  -2.661  1.00 39.32     0.108 C 
BRANCH  17  18
HETATM   18  CBA   D T1001       9.010   0.625  -3.247  1.00 40.15     0.048 C 
BRANCH  18  19
HETATM   19  CBB   D T1001       8.449   0.922  -4.629  1.00 46.58     0.099 C 
BRANCH  19  20
HETATM   20  NBC   D T1001       9.496   1.441  -5.506  1.00 44.62    -0.365 N 
HETATM   21  CBD   D T1001      10.842   0.943  -5.243  1.00 48.91     0.121 C 
HETATM   22  CBE   D T1001       9.258   2.351  -6.616  1.00 49.55     0.121 C 
ENDBRANCH  19  20
ENDBRANCH  18  19
ENDBRANCH  17  18
ENDBRANCH  10  17
ENDBRANCH   1   8
BRANCH   7  23
HETATM   23  CAK   D T1001      12.657  -2.387   0.286  1.00 34.11     0.025 A 
HETATM   24  CAM   D T1001      13.061  -1.381   1.186  1.00 33.58     0.019 A 
HETATM   25  CAP   D T1001      12.755  -1.107   2.525  1.00 31.36     0.002 A 
HETATM   26  CAN   D T1001      13.932  -0.596   0.430  1.00 34.83     0.081 A 
HETATM   27  CAQ   D T1001      13.342  -0.002   3.131  1.00 33.71     0.000 A 
HETATM   28  CAR   D T1001      14.222   0.789   2.391  1.00 32.72     0.002 A 
HETATM   29  CAS   D T1001      14.540   0.512   1.050  1.00 35.56     0.019 A 
HETATM   30  NAO   D T1001      14.038  -1.130  -0.831  1.00 33.95    -0.244 NA
HETATM   31  CAL   D T1001      13.267  -2.244  -0.960  1.00 33.68     0.099 A 
ENDBRANCH   7  23
TORSDOF 6
ENDMDL
MODEL 6
REMARK VINA RESULT:      -7.1     18.036     20.424
REMARK  6 active torsions:
REMARK  status: ('A' for Active; 'I' for Inactive)
REMARK    1  A    between atoms: NBC_2  and  CBB_4 
REMARK    2  A    between atoms: CBB_4  and  CBA_5 
REMARK    3  A    between atoms: CBA_5  and  CAY_6 
REMARK    4  A    between atoms: CAY_6  and  NAH_7 
REMARK    5  A    between atoms: CAG_15  and  CAI_16 
REMARK    6  A    between atoms: CAJ_22  and  CAK_23 
ROOT
HETATM    1  CAI   D T1001      -0.409  10.165 -12.843  1.00 35.40     0.064 A 
HETATM    2  CAT   D T1001      -1.764   9.617 -12.559  1.00 36.13     0.282 A 
HETATM    3  OAZ   D T1001      -2.444   8.918 -13.392  1.00 33.53    -0.265 OA
HETATM    4  NAU   D T1001      -2.276   9.998 -11.368  1.00 33.87    -0.169 NA
HETATM    5  CAV   D T1001      -1.308  10.709 -10.774  1.00 34.90     0.282 A 
HETATM    6  OAX   D T1001      -1.476  11.204  -9.610  1.00 35.00    -0.265 OA
HETATM    7  CAJ   D T1001      -0.084  10.870 -11.590  1.00 32.88     0.064 A 
ENDROOT
BRANCH   1   8
HETATM    8  CAG   D T1001       0.436   9.813 -14.039  1.00 35.34     0.023 A 
HETATM    9  CAW   D T1001      -0.067   9.946 -15.312  1.00 34.78     0.076 A 
HETATM   10  NAH   D T1001       0.975   9.628 -16.139  1.00 36.88    -0.326 N 
HETATM   11  CAE   D T1001       2.084   9.351 -15.441  1.00 36.88     0.060 A 
HETATM   12  CAF   D T1001       3.388   9.009 -15.809  1.00 37.02     0.017 A 
HETATM   13  CAD   D T1001       1.785   9.500 -14.083  1.00 36.79     0.017 A 
HETATM   14  CAA   D T1001       4.347   8.780 -14.843  1.00 37.13     0.002 A 
HETATM   15  CAB   D T1001       4.035   8.903 -13.478  1.00 38.67     0.000 A 
HETATM   16  CAC   D T1001       2.737   9.247 -13.090  1.00 38.70     0.002 A 
BRANCH  10  17
HETATM   17  CAY   D T1001       0.876   9.639 -17.586  1.00 39.32     0.108 C 
BRANCH  17  18
HETATM   18  CBA   D T1001      -0.389   8.964 -18.064  1.00 40.15     0.048 C 
BRANCH  18  19
HETATM   19  CBB   D T1001       0.011   7.501 -18.172  1.00 46.58     0.099 C 
BRANCH  19  20
HETATM   20  NBC   D T1001      -1.078   6.638 -17.721  1.00 44.62    -0.365 N 
HETATM   21  CBD   D T1001      -1.355   6.669 -16.289  1.00 48.91     0.121 C 
HETATM   22  CBE   D T1001      -1.897   5.824 -18.606  1.00 49.55     0.121 C 
ENDBRANCH  19  20
ENDBRANCH  18  19
ENDBRANCH  17  18
ENDBRANCH  10  17
ENDBRANCH   1   8
BRANCH   7  23
HETATM   23  CAK   D T1001       1.155  11.592 -11.153  1.00 34.11     0.025 A 
HETATM   24  CAM   D T1001       2.066  11.207 -10.150  1.00 33.58     0.019 A 
HETATM   25  CAP   D T1001       2.150  10.097  -9.299  1.00 31.36     0.002 A 
HETATM   26  CAN   D T1001       2.997  12.245 -10.138  1.00 34.83     0.081 A 
HETATM   27  CAQ   D T1001       3.207  10.025  -8.399  1.00 33.71     0.000 A 
HETATM   28  CAR   D T1001       4.152  11.052  -8.379  1.00 32.72     0.002 A 
HETATM   29  CAS   D T1001       4.077  12.163  -9.237  1.00 35.56     0.019 A 
HETATM   30  NAO   D T1001       2.652  13.170 -11.093  1.00 33.95    -0.244 NA
HETATM   31  CAL   D T1001       1.518  12.800 -11.748  1.00 33.68     0.099 A 
ENDBRANCH   7  23
TORSDOF 6
ENDMDL
MODEL 7
REMARK VINA RESULT:      -6.9      4.078      7.523
REMARK  6 active torsions:
REMARK  status: ('A' for Active; 'I' for Inactive)
REMARK    1  A    between atoms: NBC_2  and  CBB_4 
REMARK    2  A    between atoms: CBB_4  and  CBA_5 
REMARK    3  A    between atoms: CBA_5  and  CAY_6 
REMARK    4  A    between atoms: CAY_6  and  NAH_7 
REMARK    5  A    between atoms: CAG_15  and  CAI_16 
REMARK    6  A    between atoms: CAJ_22  and  CAK_23 
ROOT
HETATM    1  CAI   D T1001      10.119  -4.039  -1.714  1.00 35.40     0.064 A 
HETATM    2  CAT   D T1001      10.033  -5.447  -2.191  1.00 36.13     0.282 A 
HETATM    3  OAZ   D T1001      10.560  -6.445  -1.580  1.00 33.53    -0.265 OA
HETATM    4  NAU   D T1001       9.429  -5.589  -3.391  1.00 33.87    -0.169 NA
HETATM    5  CAV   D T1001       9.012  -4.360  -3.728  1.00 34.90     0.282 A 
HETATM    6  OAX   D T1001       8.380  -4.156  -4.817  1.00 35.00    -0.265 OA
HETATM    7  CAJ   D T1001       9.369  -3.308  -2.750  1.00 32.88     0.064 A 
ENDROOT
BRANCH   1   8
HETATM    8  CAG   D T1001      10.639  -3.610  -0.367  1.00 35.34     0.023 A 
HETATM    9  CAW   D T1001      11.469  -2.519  -0.254  1.00 34.78     0.076 A 
HETATM   10  NAH   D T1001      11.674  -2.367   1.089  1.00 36.88    -0.326 N 
HETATM   11  CAE   D T1001      10.987  -3.277   1.792  1.00 36.88     0.060 A 
HETATM   12  CAF   D T1001      10.839  -3.519   3.161  1.00 37.02     0.017 A 
HETATM   13  CAD   D T1001      10.274  -4.071   0.888  1.00 36.79     0.017 A 
HETATM   14  CAA   D T1001      10.040  -4.554   3.604  1.00 37.13     0.002 A 
HETATM   15  CAB   D T1001       9.348  -5.368   2.690  1.00 38.67     0.000 A 
HETATM   16  CAC   D T1001       9.479  -5.139   1.316  1.00 38.70     0.002 A 
BRANCH  10  17
HETATM   17  CAY   D T1001      12.502  -1.320   1.656  1.00 39.32     0.108 C 
BRANCH  17  18
HETATM   18  CBA   D T1001      13.971  -1.584   1.425  1.00 40.15     0.048 C 
BRANCH  18  19
HETATM   19  CBB   D T1001      14.521  -0.217   1.050  1.00 46.58     0.099 C 
BRANCH  19  20
HETATM   20  NBC   D T1001      15.134  -0.258  -0.276  1.00 44.62    -0.365 N 
HETATM   21  CBD   D T1001      15.298  -1.587  -0.854  1.00 48.91     0.121 C 
HETATM   22  CBE   D T1001      15.523   0.922  -1.033  1.00 49.55     0.121 C 
ENDBRANCH  19  20
ENDBRANCH  18  19
ENDBRANCH  17  18
ENDBRANCH  10  17
ENDBRANCH   1   8
BRANCH   7  23
HETATM   23  CAK   D T1001       9.000  -1.860  -2.869  1.00 34.11     0.025 A 
HETATM   24  CAM   D T1001       9.648  -0.867  -3.632  1.00 33.58     0.019 A 
HETATM   25  CAP   D T1001      10.749  -0.882  -4.497  1.00 31.36     0.002 A 
HETATM   26  CAN   D T1001       8.917   0.288  -3.353  1.00 34.83     0.081 A 
HETATM   27  CAQ   D T1001      11.138   0.307  -5.104  1.00 33.71     0.000 A 
HETATM   28  CAR   D T1001      10.413   1.470  -4.841  1.00 32.72     0.002 A 
HETATM   29  CAS   D T1001       9.300   1.488  -3.982  1.00 35.56     0.019 A 
HETATM   30  NAO   D T1001       7.895  -0.024  -2.491  1.00 33.95    -0.244 NA
HETATM   31  CAL   D T1001       7.908  -1.347  -2.171  1.00 33.68     0.099 A 
ENDBRANCH   7  23
TORSDOF 6
ENDMDL
MODEL 8
REMARK VINA RESULT:      -6.8      3.705      5.299
REMARK  6 active torsions:
REMARK  status: ('A' for Active; 'I' for Inactive)
REMARK    1  A    between atoms: NBC_2  and  CBB_4 
REMARK    2  A    between atoms: CBB_4  and  CBA_5 
REMARK    3  A    between atoms: CBA_5  and  CAY_6 
REMARK    4  A    between atoms: CAY_6  and  NAH_7 
REMARK    5  A    between atoms: CAG_15  and  CAI_16 
REMARK    6  A    between atoms: CAJ_22  and  CAK_23 
ROOT
HETATM    1  CAI   D T1001      11.507  -2.573  -1.275  1.00 35.40     0.064 A 
HETATM    2  CAT   D T1001      12.745  -1.758  -1.123  1.00 36.13     0.282 A 
HETATM    3  OAZ   D T1001      13.106  -0.843  -1.947  1.00 33.53    -0.265 OA
HETATM    4  NAU   D T1001      13.525  -2.125  -0.083  1.00 33.87    -0.169 NA
HETATM    5  CAV   D T1001      12.847  -3.095   0.546  1.00 34.90     0.282 A 
HETATM    6  OAX   D T1001      13.315  -3.649   1.595  1.00 35.00    -0.265 OA
HETATM    7  CAJ   D T1001      11.561  -3.452  -0.094  1.00 32.88     0.064 A 
ENDROOT
BRANCH   1   8
HETATM    8  CAG   D T1001      10.412  -2.309  -2.275  1.00 35.34     0.023 A 
HETATM    9  CAW   D T1001       9.907  -1.041  -2.439  1.00 34.78     0.076 A 
HETATM   10  NAH   D T1001       9.009  -1.147  -3.465  1.00 36.88    -0.326 N 
HETATM   11  CAE   D T1001       8.973  -2.395  -3.953  1.00 36.88     0.060 A 
HETATM   12  CAF   D T1001       8.262  -2.996  -4.995  1.00 37.02     0.017 A 
HETATM   13  CAD   D T1001       9.896  -3.163  -3.237  1.00 36.79     0.017 A 
HETATM   14  CAA   D T1001       8.438  -4.335  -5.277  1.00 37.13     0.002 A 
HETATM   15  CAB   D T1001       9.346  -5.112  -4.536  1.00 38.67     0.000 A 
HETATM   16  CAC   D T1001      10.069  -4.528  -3.492  1.00 38.70     0.002 A 
BRANCH  10  17
HETATM   17  CAY   D T1001       8.238  -0.027  -3.969  1.00 39.32     0.108 C 
BRANCH  17  18
HETATM   18  CBA   D T1001       8.919   0.636  -5.142  1.00 40.15     0.048 C 
BRANCH  18  19
HETATM   19  CBB   D T1001       7.948   0.409  -6.290  1.00 46.58     0.099 C 
BRANCH  19  20
HETATM   20  NBC   D T1001       7.904   1.580  -7.163  1.00 44.62    -0.365 N 
HETATM   21  CBD   D T1001       6.771   1.640  -8.080  1.00 48.91     0.121 C 
HETATM   22  CBE   D T1001       8.871   2.666  -7.123  1.00 49.55     0.121 C 
ENDBRANCH  19  20
ENDBRANCH  18  19
ENDBRANCH  17  18
ENDBRANCH  10  17
ENDBRANCH   1   8
BRANCH   7  23
HETATM   23  CAK   D T1001      10.599  -4.480   0.420  1.00 34.11     0.025 A 
HETATM   24  CAM   D T1001      10.566  -5.855   0.116  1.00 33.58     0.019 A 
HETATM   25  CAP   D T1001      11.365  -6.686  -0.679  1.00 31.36     0.002 A 
HETATM   26  CAN   D T1001       9.463  -6.322   0.832  1.00 34.83     0.081 A 
HETATM   27  CAQ   D T1001      11.047  -8.037  -0.765  1.00 33.71     0.000 A 
HETATM   28  CAR   D T1001       9.950  -8.521  -0.050  1.00 32.72     0.002 A 
HETATM   29  CAS   D T1001       9.151  -7.693   0.758  1.00 35.56     0.019 A 
HETATM   30  NAO   D T1001       8.902  -5.277   1.524  1.00 33.95    -0.244 NA
HETATM   31  CAL   D T1001       9.579  -4.118   1.300  1.00 33.68     0.099 A 
ENDBRANCH   7  23
TORSDOF 6
ENDMDL
MODEL 9
REMARK VINA RESULT:      -6.8     18.331     20.938
REMARK  6 active torsions:
REMARK  status: ('A' for Active; 'I' for Inactive)
REMARK    1  A    between atoms: NBC_2  and  CBB_4 
REMARK    2  A    between atoms: CBB_4  and  CBA_5 
REMARK    3  A    between atoms: CBA_5  and  CAY_6 
REMARK    4  A    between atoms: CAY_6  and  NAH_7 
REMARK    5  A    between atoms: CAG_15  and  CAI_16 
REMARK    6  A    between atoms: CAJ_22  and  CAK_23 
ROOT
HETATM    1  CAI   D T1001       0.573  11.762 -11.706  1.00 35.40     0.064 A 
HETATM    2  CAT   D T1001      -0.865  11.870 -11.333  1.00 36.13     0.282 A 
HETATM    3  OAZ   D T1001      -1.834  11.585 -12.125  1.00 33.53    -0.265 OA
HETATM    4  NAU   D T1001      -1.082  12.391 -10.106  1.00 33.87    -0.169 NA
HETATM    5  CAV   D T1001       0.136  12.567  -9.573  1.00 34.90     0.282 A 
HETATM    6  OAX   D T1001       0.276  13.036  -8.395  1.00 35.00    -0.265 OA
HETATM    7  CAJ   D T1001       1.252  12.194 -10.471  1.00 32.88     0.064 A 
ENDROOT
BRANCH   1   8
HETATM    8  CAG   D T1001       1.098  11.117 -12.961  1.00 35.34     0.023 A 
HETATM    9  CAW   D T1001       0.529  11.399 -14.181  1.00 34.78     0.076 A 
HETATM   10  NAH   D T1001       1.292  10.723 -15.092  1.00 36.88    -0.326 N 
HETATM   11  CAE   D T1001       2.308  10.084 -14.497  1.00 36.88     0.060 A 
HETATM   12  CAF   D T1001       3.361   9.300 -14.979  1.00 37.02     0.017 A 
HETATM   13  CAD   D T1001       2.240  10.350 -13.127  1.00 36.79     0.017 A 
HETATM   14  CAA   D T1001       4.286   8.763 -14.106  1.00 37.13     0.002 A 
HETATM   15  CAB   D T1001       4.196   9.009 -12.725  1.00 38.67     0.000 A 
HETATM   16  CAC   D T1001       3.153   9.793 -12.224  1.00 38.70     0.002 A 
BRANCH  10  17
HETATM   17  CAY   D T1001       1.036  10.746 -16.520  1.00 39.32     0.108 C 
BRANCH  17  18
HETATM   18  CBA   D T1001       0.875   9.352 -17.080  1.00 40.15     0.048 C 
BRANCH  18  19
HETATM   19  CBB   D T1001      -0.547   8.978 -16.694  1.00 46.58     0.099 C 
BRANCH  19  20
HETATM   20  NBC   D T1001      -0.821   7.584 -17.036  1.00 44.62    -0.365 N 
HETATM   21  CBD   D T1001      -0.437   7.180 -18.384  1.00 48.91     0.121 C 
HETATM   22  CBE   D T1001      -1.387   6.612 -16.114  1.00 49.55     0.121 C 
ENDBRANCH  19  20
ENDBRANCH  18  19
ENDBRANCH  17  18
ENDBRANCH  10  17
ENDBRANCH   1   8
BRANCH   7  23
HETATM   23  CAK   D T1001       2.706  12.265 -10.113  1.00 34.11     0.025 A 
HETATM   24  CAM   D T1001       3.736  12.910 -10.826  1.00 33.58     0.019 A 
HETATM   25  CAP   D T1001       3.764  13.672 -12.000  1.00 31.36     0.002 A 
HETATM   26  CAN   D T1001       4.877  12.633 -10.072  1.00 34.83     0.081 A 
HETATM   27  CAQ   D T1001       4.983  14.175 -12.441  1.00 33.71     0.000 A 
HETATM   28  CAR   D T1001       6.134  13.914 -11.695  1.00 32.72     0.002 A 
HETATM   29  CAS   D T1001       6.108  13.158 -10.510  1.00 35.56     0.019 A 
HETATM   30  NAO   D T1001       4.522  11.885  -8.977  1.00 33.95    -0.244 NA
HETATM   31  CAL   D T1001       3.184  11.639  -8.963  1.00 33.68     0.099 A 
ENDBRANCH   7  23
TORSDOF 6
ENDMDL
