MODEL 1
REMARK VINA RESULT:      -9.5      0.000      0.000
REMARK  3 active torsions:
REMARK  status: ('A' for Active; 'I' for Inactive)
REMARK    1  A    between atoms: C8_11  and  C9_12 
REMARK    2  A    between atoms: C10_13  and  N2_14 
REMARK    3  A    between atoms: N2_14  and  C11_15 
ROOT
HETATM    1  C1    D T 298       4.309   1.062  -8.281  1.00 17.20     0.036 A 
HETATM    2  C2    D T 298       3.113   0.668  -7.645  1.00 17.20     0.014 A 
HETATM    3  C3    D T 298       2.021   0.195  -8.376  1.00 17.20     0.058 A 
HETATM    4 CL     D T 298       0.593  -0.276  -7.544  1.00 17.20    -0.082 Cl
HETATM    5  C4    D T 298       2.084   0.100  -9.767  1.00 17.20     0.013 A 
HETATM    6  C5    D T 298       3.262   0.480 -10.431  1.00 17.20     0.020 A 
HETATM    7  C6    D T 298       4.360   0.955  -9.689  1.00 17.20     0.086 A 
HETATM    8  N1    D T 298       5.531   1.316 -10.370  1.00 17.20    -0.208 NA
HETATM    9  C7    D T 298       6.668   1.779  -9.738  1.00 17.20     0.284 A 
HETATM   10  O1    D T 298       7.671   2.082 -10.390  1.00 17.20    -0.265 OA
HETATM   11  C8    D T 298       6.626   1.913  -8.239  1.00 17.20     0.111 A 
HETATM   12  C10   D T 298       5.499   1.569  -7.540  1.00 17.20     0.085 A 
ENDROOT
BRANCH  11  13
HETATM   13  C9    D T 298       7.782   2.390  -7.507  1.00 17.20     0.169 A 
HETATM   14  N3    D T 298       8.294   3.619  -7.448  1.00 17.20    -0.225 NA
HETATM   15  C12   D T 298       9.391   3.542  -6.629  1.00 17.20     0.101 A 
HETATM   16  C13   D T 298       9.577   2.239  -6.171  1.00 17.20     0.101 A 
HETATM   17  C14   D T 298      10.292   4.555  -6.231  1.00 17.20     0.021 A 
HETATM   18  N4    D T 298       8.549   1.528  -6.740  1.00 17.20    -0.225 NA
HETATM   19  C17   D T 298      10.626   1.872  -5.315  1.00 17.20     0.021 A 
HETATM   20  C16   D T 298      11.516   2.895  -4.927  1.00 17.20     0.002 A 
HETATM   21  C15   D T 298      11.353   4.215  -5.376  1.00 17.20     0.002 A 
ENDBRANCH  11  13
BRANCH  12  22
HETATM   22  N2    D T 298       5.451   1.708  -6.148  1.00 17.20    -0.270 NA
BRANCH  22  23
HETATM   23  C11   D T 298       5.275   2.869  -5.290  1.00 20.30     0.137 C 
HETATM   24  C18   D T 298       5.274   2.422  -3.799  1.00 20.30     0.274 C 
HETATM   25  N5    D T 298       3.961   2.851  -3.141  1.00 20.30     0.139 N 
HETATM   26  C19   D T 298       3.827   4.363  -3.189  1.00 20.30     0.250 C 
HETATM   27  C21   D T 298       2.771   2.200  -3.839  1.00 20.30     0.250 C 
HETATM   28  C20   D T 298       3.813   4.807  -4.660  1.00 20.30     0.037 C 
HETATM   29  C23   D T 298       3.935   3.585  -5.602  1.00 20.30     0.029 C 
HETATM   30  C22   D T 298       2.753   2.642  -5.306  1.00 20.30     0.037 C 
ENDBRANCH  22  23
ENDBRANCH  12  22
TORSDOF 3
ENDMDL
MODEL 2
REMARK VINA RESULT:      -9.5      3.025      7.105
REMARK  3 active torsions:
REMARK  status: ('A' for Active; 'I' for Inactive)
REMARK    1  A    between atoms: C8_11  and  C9_12 
REMARK    2  A    between atoms: C10_13  and  N2_14 
REMARK    3  A    between atoms: N2_14  and  C11_15 
ROOT
HETATM    1  C1    D T 298       4.042   4.495  -3.527  1.00 17.20     0.036 A 
HETATM    2  C2    D T 298       4.954   4.274  -2.472  1.00 17.20     0.014 A 
HETATM    3  C3    D T 298       4.906   5.027  -1.298  1.00 17.20     0.058 A 
HETATM    4 CL     D T 298       6.039   4.707  -0.046  1.00 17.20    -0.082 Cl
HETATM    5  C4    D T 298       3.948   6.031  -1.136  1.00 17.20     0.013 A 
HETATM    6  C5    D T 298       3.024   6.273  -2.164  1.00 17.20     0.020 A 
HETATM    7  C6    D T 298       3.076   5.509  -3.345  1.00 17.20     0.086 A 
HETATM    8  N1    D T 298       2.134   5.758  -4.354  1.00 17.20    -0.208 NA
HETATM    9  C7    D T 298       2.088   5.058  -5.542  1.00 17.20     0.284 A 
HETATM   10  O1    D T 298       1.235   5.321  -6.395  1.00 17.20    -0.265 OA
HETATM   11  C8    D T 298       3.121   3.983  -5.758  1.00 17.20     0.111 A 
HETATM   12  C10   D T 298       4.055   3.711  -4.794  1.00 17.20     0.085 A 
ENDROOT
BRANCH  11  13
HETATM   13  C9    D T 298       3.133   3.205  -6.981  1.00 17.20     0.169 A 
HETATM   14  N3    D T 298       2.818   1.923  -7.167  1.00 17.20    -0.225 NA
HETATM   15  C12   D T 298       3.005   1.669  -8.502  1.00 17.20     0.101 A 
HETATM   16  C13   D T 298       3.452   2.811  -9.166  1.00 17.20     0.101 A 
HETATM   17  C14   D T 298       2.816   0.472  -9.227  1.00 17.20     0.021 A 
HETATM   18  N4    D T 298       3.527   3.768  -8.183  1.00 17.20    -0.225 NA
HETATM   19  C17   D T 298       3.724   2.837 -10.541  1.00 17.20     0.021 A 
HETATM   20  C16   D T 298       3.531   1.634 -11.250  1.00 17.20     0.002 A 
HETATM   21  C15   D T 298       3.083   0.470 -10.606  1.00 17.20     0.002 A 
ENDBRANCH  11  13
BRANCH  12  22
HETATM   22  N2    D T 298       5.026   2.724  -4.999  1.00 17.20    -0.270 NA
BRANCH  22  23
HETATM   23  C11   D T 298       6.443   2.802  -5.319  1.00 20.30     0.137 C 
HETATM   24  C18   D T 298       6.650   3.727  -6.553  1.00 20.30     0.274 C 
HETATM   25  N5    D T 298       7.355   2.944  -7.662  1.00 20.30     0.139 N 
HETATM   26  C19   D T 298       8.718   2.474  -7.180  1.00 20.30     0.250 C 
HETATM   27  C21   D T 298       6.515   1.746  -8.095  1.00 20.30     0.250 C 
HETATM   28  C20   D T 298       8.516   1.549  -5.970  1.00 20.30     0.037 C 
HETATM   29  C23   D T 298       7.011   1.395  -5.643  1.00 20.30     0.029 C 
HETATM   30  C22   D T 298       6.314   0.820  -6.890  1.00 20.30     0.037 C 
ENDBRANCH  22  23
ENDBRANCH  12  22
TORSDOF 3
ENDMDL
MODEL 3
REMARK VINA RESULT:      -9.2      3.124      7.110
REMARK  3 active torsions:
REMARK  status: ('A' for Active; 'I' for Inactive)
REMARK    1  A    between atoms: C8_11  and  C9_12 
REMARK    2  A    between atoms: C10_13  and  N2_14 
REMARK    3  A    between atoms: N2_14  and  C11_15 
ROOT
HETATM    1  C1    D T 298       4.311   4.548  -3.305  1.00 17.20     0.036 A 
HETATM    2  C2    D T 298       5.275   4.354  -2.292  1.00 17.20     0.014 A 
HETATM    3  C3    D T 298       5.230   5.071  -1.095  1.00 17.20     0.058 A 
HETATM    4 CL     D T 298       6.428   4.785   0.103  1.00 17.20    -0.082 Cl
HETATM    5  C4    D T 298       4.223   6.011  -0.867  1.00 17.20     0.013 A 
HETATM    6  C5    D T 298       3.245   6.226  -1.853  1.00 17.20     0.020 A 
HETATM    7  C6    D T 298       3.295   5.498  -3.056  1.00 17.20     0.086 A 
HETATM    8  N1    D T 298       2.302   5.718  -4.022  1.00 17.20    -0.208 NA
HETATM    9  C7    D T 298       2.249   5.049  -5.227  1.00 17.20     0.284 A 
HETATM   10  O1    D T 298       1.350   5.284  -6.039  1.00 17.20    -0.265 OA
HETATM   11  C8    D T 298       3.333   4.044  -5.514  1.00 17.20     0.111 A 
HETATM   12  C10   D T 298       4.320   3.802  -4.594  1.00 17.20     0.085 A 
ENDROOT
BRANCH  11  13
HETATM   13  C9    D T 298       3.342   3.301  -6.758  1.00 17.20     0.169 A 
HETATM   14  N3    D T 298       3.771   3.679  -7.962  1.00 17.20    -0.225 NA
HETATM   15  C12   D T 298       3.551   2.617  -8.802  1.00 17.20     0.101 A 
HETATM   16  C13   D T 298       2.966   1.555  -8.115  1.00 17.20     0.101 A 
HETATM   17  C14   D T 298       3.822   2.488 -10.182  1.00 17.20     0.021 A 
HETATM   18  N4    D T 298       2.842   2.011  -6.824  1.00 17.20    -0.225 NA
HETATM   19  C17   D T 298       2.631   0.339  -8.729  1.00 17.20     0.021 A 
HETATM   20  C16   D T 298       2.908   0.227 -10.106  1.00 17.20     0.002 A 
HETATM   21  C15   D T 298       3.495   1.281 -10.823  1.00 17.20     0.002 A 
ENDBRANCH  11  13
BRANCH  12  22
HETATM   22  N2    D T 298       5.337   2.880  -4.864  1.00 17.20    -0.270 NA
BRANCH  22  23
HETATM   23  C11   D T 298       6.195   2.686  -6.023  1.00 20.30     0.137 C 
HETATM   24  C18   D T 298       6.652   1.200  -6.093  1.00 20.30     0.274 C 
HETATM   25  N5    D T 298       8.181   1.138  -6.069  1.00 20.30     0.139 N 
HETATM   26  C19   D T 298       8.749   1.872  -7.272  1.00 20.30     0.250 C 
HETATM   27  C21   D T 298       8.725   1.750  -4.781  1.00 20.30     0.250 C 
HETATM   28  C20   D T 298       8.311   3.343  -7.199  1.00 20.30     0.037 C 
HETATM   29  C23   D T 298       7.448   3.596  -5.939  1.00 20.30     0.029 C 
HETATM   30  C22   D T 298       8.291   3.217  -4.706  1.00 20.30     0.037 C 
ENDBRANCH  22  23
ENDBRANCH  12  22
TORSDOF 3
ENDMDL
MODEL 4
REMARK VINA RESULT:      -9.1      2.623      5.622
REMARK  3 active torsions:
REMARK  status: ('A' for Active; 'I' for Inactive)
REMARK    1  A    between atoms: C8_11  and  C9_12 
REMARK    2  A    between atoms: C10_13  and  N2_14 
REMARK    3  A    between atoms: N2_14  and  C11_15 
ROOT
HETATM    1  C1    D T 298       4.445   1.940  -7.431  1.00 17.20     0.036 A 
HETATM    2  C2    D T 298       5.364   1.584  -8.440  1.00 17.20     0.014 A 
HETATM    3  C3    D T 298       4.962   0.880  -9.578  1.00 17.20     0.058 A 
HETATM    4 CL     D T 298       6.128   0.480 -10.775  1.00 17.20    -0.082 Cl
HETATM    5  C4    D T 298       3.628   0.506  -9.747  1.00 17.20     0.013 A 
HETATM    6  C5    D T 298       2.686   0.849  -8.763  1.00 17.20     0.020 A 
HETATM    7  C6    D T 298       3.097   1.559  -7.620  1.00 17.20     0.086 A 
HETATM    8  N1    D T 298       2.138   1.904  -6.656  1.00 17.20    -0.208 NA
HETATM    9  C7    D T 298       2.432   2.611  -5.508  1.00 17.20     0.284 A 
HETATM   10  O1    D T 298       1.545   2.886  -4.695  1.00 17.20    -0.265 OA
HETATM   11  C8    D T 298       3.866   3.012  -5.285  1.00 17.20     0.111 A 
HETATM   12  C10   D T 298       4.830   2.694  -6.205  1.00 17.20     0.085 A 
ENDROOT
BRANCH  11  13
HETATM   13  C9    D T 298       4.249   3.758  -4.103  1.00 17.20     0.169 A 
HETATM   14  N3    D T 298       4.895   3.340  -3.014  1.00 17.20    -0.225 NA
HETATM   15  C12   D T 298       5.001   4.427  -2.186  1.00 17.20     0.101 A 
HETATM   16  C13   D T 298       4.406   5.549  -2.761  1.00 17.20     0.101 A 
HETATM   17  C14   D T 298       5.595   4.533  -0.908  1.00 17.20     0.021 A 
HETATM   18  N4    D T 298       3.936   5.101  -3.972  1.00 17.20    -0.225 NA
HETATM   19  C17   D T 298       4.368   6.802  -2.132  1.00 17.20     0.021 A 
HETATM   20  C16   D T 298       4.966   6.890  -0.858  1.00 17.20     0.002 A 
HETATM   21  C15   D T 298       5.571   5.776  -0.255  1.00 17.20     0.002 A 
ENDBRANCH  11  13
BRANCH  12  22
HETATM   22  N2    D T 298       6.166   3.051  -5.992  1.00 17.20    -0.270 NA
BRANCH  22  23
HETATM   23  C11   D T 298       7.345   2.265  -5.664  1.00 20.30     0.137 C 
HETATM   24  C18   D T 298       8.180   3.001  -4.577  1.00 20.30     0.274 C 
HETATM   25  N5    D T 298       9.593   3.254  -5.106  1.00 20.30     0.139 N 
HETATM   26  C19   D T 298      10.273   1.932  -5.420  1.00 20.30     0.250 C 
HETATM   27  C21   D T 298       9.552   4.128  -6.356  1.00 20.30     0.250 C 
HETATM   28  C20   D T 298       9.460   1.208  -6.504  1.00 20.30     0.037 C 
HETATM   29  C23   D T 298       8.230   2.051  -6.920  1.00 20.30     0.029 C 
HETATM   30  C22   D T 298       8.743   3.408  -7.440  1.00 20.30     0.037 C 
ENDBRANCH  22  23
ENDBRANCH  12  22
TORSDOF 3
ENDMDL
MODEL 5
REMARK VINA RESULT:      -8.9      2.570      5.512
REMARK  3 active torsions:
REMARK  status: ('A' for Active; 'I' for Inactive)
REMARK    1  A    between atoms: C8_11  and  C9_12 
REMARK    2  A    between atoms: C10_13  and  N2_14 
REMARK    3  A    between atoms: N2_14  and  C11_15 
ROOT
HETATM    1  C1    D T 298       3.250   1.886  -7.538  1.00 17.20     0.036 A 
HETATM    2  C2    D T 298       3.672   2.011  -8.879  1.00 17.20     0.014 A 
HETATM    3  C3    D T 298       3.226   1.133  -9.869  1.00 17.20     0.058 A 
HETATM    4 CL     D T 298       3.771   1.341 -11.485  1.00 17.20    -0.082 Cl
HETATM    5  C4    D T 298       2.343   0.098  -9.555  1.00 17.20     0.013 A 
HETATM    6  C5    D T 298       1.900  -0.052  -8.231  1.00 17.20     0.020 A 
HETATM    7  C6    D T 298       2.352   0.837  -7.238  1.00 17.20     0.086 A 
HETATM    8  N1    D T 298       1.886   0.678  -5.925  1.00 17.20    -0.208 NA
HETATM    9  C7    D T 298       2.255   1.502  -4.881  1.00 17.20     0.284 A 
HETATM   10  O1    D T 298       1.811   1.314  -3.744  1.00 17.20    -0.265 OA
HETATM   11  C8    D T 298       3.222   2.616  -5.181  1.00 17.20     0.111 A 
HETATM   12  C10   D T 298       3.698   2.802  -6.452  1.00 17.20     0.085 A 
ENDROOT
BRANCH  11  13
HETATM   13  C9    D T 298       3.653   3.523  -4.135  1.00 17.20     0.169 A 
HETATM   14  N3    D T 298       4.544   3.326  -3.164  1.00 17.20    -0.225 NA
HETATM   15  C12   D T 298       4.581   4.486  -2.433  1.00 17.20     0.101 A 
HETATM   16  C13   D T 298       3.692   5.427  -2.950  1.00 17.20     0.101 A 
HETATM   17  C14   D T 298       5.355   4.811  -1.296  1.00 17.20     0.021 A 
HETATM   18  N4    D T 298       3.115   4.794  -4.025  1.00 17.20    -0.225 NA
HETATM   19  C17   D T 298       3.524   6.705  -2.397  1.00 17.20     0.021 A 
HETATM   20  C16   D T 298       4.304   7.013  -1.264  1.00 17.20     0.002 A 
HETATM   21  C15   D T 298       5.205   6.084  -0.721  1.00 17.20     0.002 A 
ENDBRANCH  11  13
BRANCH  12  22
HETATM   22  N2    D T 298       4.609   3.827  -6.731  1.00 17.20    -0.270 NA
BRANCH  22  23
HETATM   23  C11   D T 298       6.064   3.859  -6.752  1.00 20.30     0.137 C 
HETATM   24  C18   D T 298       6.574   3.516  -8.182  1.00 20.30     0.274 C 
HETATM   25  N5    D T 298       7.492   2.294  -8.113  1.00 20.30     0.139 N 
HETATM   26  C19   D T 298       8.693   2.596  -7.234  1.00 20.30     0.250 C 
HETATM   27  C21   D T 298       6.739   1.084  -7.568  1.00 20.30     0.250 C 
HETATM   28  C20   D T 298       8.194   2.921  -5.818  1.00 20.30     0.037 C 
HETATM   29  C23   D T 298       6.650   2.833  -5.748  1.00 20.30     0.029 C 
HETATM   30  C22   D T 298       6.241   1.404  -6.154  1.00 20.30     0.037 C 
ENDBRANCH  22  23
ENDBRANCH  12  22
TORSDOF 3
ENDMDL
MODEL 6
REMARK VINA RESULT:      -8.6      1.996      4.382
REMARK  3 active torsions:
REMARK  status: ('A' for Active; 'I' for Inactive)
REMARK    1  A    between atoms: C8_11  and  C9_12 
REMARK    2  A    between atoms: C10_13  and  N2_14 
REMARK    3  A    between atoms: N2_14  and  C11_15 
ROOT
HETATM    1  C1    D T 298       4.181   1.236  -6.851  1.00 17.20     0.036 A 
HETATM    2  C2    D T 298       3.613   0.624  -7.988  1.00 17.20     0.014 A 
HETATM    3  C3    D T 298       2.266   0.258  -8.023  1.00 17.20     0.058 A 
HETATM    4 CL     D T 298       1.630  -0.478  -9.440  1.00 17.20    -0.082 Cl
HETATM    5  C4    D T 298       1.439   0.487  -6.922  1.00 17.20     0.013 A 
HETATM    6  C5    D T 298       1.972   1.099  -5.775  1.00 17.20     0.020 A 
HETATM    7  C6    D T 298       3.330   1.467  -5.747  1.00 17.20     0.086 A 
HETATM    8  N1    D T 298       3.839   2.089  -4.598  1.00 17.20    -0.208 NA
HETATM    9  C7    D T 298       5.149   2.502  -4.472  1.00 17.20     0.284 A 
HETATM   10  O1    D T 298       5.541   3.045  -3.435  1.00 17.20    -0.265 OA
HETATM   11  C8    D T 298       6.074   2.250  -5.634  1.00 17.20     0.111 A 
HETATM   12  C10   D T 298       5.612   1.646  -6.773  1.00 17.20     0.085 A 
ENDROOT
BRANCH  11  13
HETATM   13  C9    D T 298       7.463   2.659  -5.575  1.00 17.20     0.169 A 
HETATM   14  N3    D T 298       8.072   3.668  -6.198  1.00 17.20    -0.225 NA
HETATM   15  C12   D T 298       9.388   3.620  -5.816  1.00 17.20     0.101 A 
HETATM   16  C13   D T 298       9.612   2.557  -4.942  1.00 17.20     0.101 A 
HETATM   17  C14   D T 298      10.465   4.457  -6.183  1.00 17.20     0.021 A 
HETATM   18  N4    D T 298       8.381   1.963  -4.806  1.00 17.20    -0.225 NA
HETATM   19  C17   D T 298      10.871   2.272  -4.393  1.00 17.20     0.021 A 
HETATM   20  C16   D T 298      11.934   3.117  -4.769  1.00 17.20     0.002 A 
HETATM   21  C15   D T 298      11.737   4.194  -5.649  1.00 17.20     0.002 A 
ENDBRANCH  11  13
BRANCH  12  22
HETATM   22  N2    D T 298       6.472   1.396  -7.848  1.00 17.20    -0.270 NA
BRANCH  22  23
HETATM   23  C11   D T 298       6.859   2.203  -8.995  1.00 20.30     0.137 C 
HETATM   24  C18   D T 298       5.838   3.362  -9.188  1.00 20.30     0.274 C 
HETATM   25  N5    D T 298       5.225   3.271 -10.587  1.00 20.30     0.139 N 
HETATM   26  C19   D T 298       6.312   3.408 -11.640  1.00 20.30     0.250 C 
HETATM   27  C21   D T 298       4.489   1.947 -10.768  1.00 20.30     0.250 C 
HETATM   28  C20   D T 298       7.314   2.257 -11.461  1.00 20.30     0.037 C 
HETATM   29  C23   D T 298       6.894   1.342 -10.285  1.00 20.30     0.029 C 
HETATM   30  C22   D T 298       5.486   0.796 -10.593  1.00 20.30     0.037 C 
ENDBRANCH  22  23
ENDBRANCH  12  22
TORSDOF 3
ENDMDL
MODEL 7
REMARK VINA RESULT:      -8.3      6.621     10.248
REMARK  3 active torsions:
REMARK  status: ('A' for Active; 'I' for Inactive)
REMARK    1  A    between atoms: C8_11  and  C9_12 
REMARK    2  A    between atoms: C10_13  and  N2_14 
REMARK    3  A    between atoms: N2_14  and  C11_15 
ROOT
HETATM    1  C1    D T 298      13.035   8.574  -2.023  1.00 17.20     0.036 A 
HETATM    2  C2    D T 298      12.529   9.289  -0.916  1.00 17.20     0.014 A 
HETATM    3  C3    D T 298      13.169  10.432  -0.432  1.00 17.20     0.058 A 
HETATM    4 CL     D T 298      12.501  11.263   0.916  1.00 17.20    -0.082 Cl
HETATM    5  C4    D T 298      14.339  10.900  -1.034  1.00 17.20     0.013 A 
HETATM    6  C5    D T 298      14.866  10.215  -2.140  1.00 17.20     0.020 A 
HETATM    7  C6    D T 298      14.215   9.065  -2.625  1.00 17.20     0.086 A 
HETATM    8  N1    D T 298      14.751   8.403  -3.739  1.00 17.20    -0.208 NA
HETATM    9  C7    D T 298      14.185   7.278  -4.302  1.00 17.20     0.284 A 
HETATM   10  O1    D T 298      14.702   6.737  -5.284  1.00 17.20    -0.265 OA
HETATM   11  C8    D T 298      12.934   6.734  -3.663  1.00 17.20     0.111 A 
HETATM   12  C10   D T 298      12.382   7.354  -2.574  1.00 17.20     0.085 A 
ENDROOT
BRANCH  11  13
HETATM   13  C9    D T 298      12.282   5.556  -4.201  1.00 17.20     0.169 A 
HETATM   14  N3    D T 298      12.429   4.278  -3.851  1.00 17.20    -0.225 NA
HETATM   15  C12   D T 298      11.598   3.556  -4.668  1.00 17.20     0.101 A 
HETATM   16  C13   D T 298      10.921   4.394  -5.553  1.00 17.20     0.101 A 
HETATM   17  C14   D T 298      11.369   2.163  -4.718  1.00 17.20     0.021 A 
HETATM   18  N4    D T 298      11.371   5.654  -5.239  1.00 17.20    -0.225 NA
HETATM   19  C17   D T 298      10.004   3.923  -6.503  1.00 17.20     0.021 A 
HETATM   20  C16   D T 298       9.787   2.530  -6.539  1.00 17.20     0.002 A 
HETATM   21  C15   D T 298      10.457   1.662  -5.662  1.00 17.20     0.002 A 
ENDBRANCH  11  13
BRANCH  12  22
HETATM   22  N2    D T 298      11.229   6.841  -1.969  1.00 17.20    -0.270 NA
BRANCH  22  23
HETATM   23  C11   D T 298       9.815   7.002  -2.271  1.00 20.30     0.137 C 
HETATM   24  C18   D T 298       9.550   8.448  -2.781  1.00 20.30     0.274 C 
HETATM   25  N5    D T 298       8.518   9.124  -1.877  1.00 20.30     0.139 N 
HETATM   26  C19   D T 298       7.209   8.353  -1.917  1.00 20.30     0.250 C 
HETATM   27  C21   D T 298       9.030   9.205  -0.441  1.00 20.30     0.250 C 
HETATM   28  C20   D T 298       7.464   6.928  -1.401  1.00 20.30     0.037 C 
HETATM   29  C23   D T 298       8.950   6.745  -1.010  1.00 20.30     0.029 C 
HETATM   30  C22   D T 298       9.283   7.786   0.077  1.00 20.30     0.037 C 
ENDBRANCH  22  23
ENDBRANCH  12  22
TORSDOF 3
ENDMDL
MODEL 8
REMARK VINA RESULT:      -8.2      2.728      5.614
REMARK  3 active torsions:
REMARK  status: ('A' for Active; 'I' for Inactive)
REMARK    1  A    between atoms: C8_11  and  C9_12 
REMARK    2  A    between atoms: C10_13  and  N2_14 
REMARK    3  A    between atoms: N2_14  and  C11_15 
ROOT
HETATM    1  C1    D T 298       4.655   2.853  -8.750  1.00 17.20     0.036 A 
HETATM    2  C2    D T 298       5.620   2.137  -9.490  1.00 17.20     0.014 A 
HETATM    3  C3    D T 298       5.426   1.834 -10.839  1.00 17.20     0.058 A 
HETATM    4 CL     D T 298       6.641   0.964 -11.689  1.00 17.20    -0.082 Cl
HETATM    5  C4    D T 298       4.261   2.233 -11.497  1.00 17.20     0.013 A 
HETATM    6  C5    D T 298       3.282   2.951 -10.790  1.00 17.20     0.020 A 
HETATM    7  C6    D T 298       3.485   3.255  -9.431  1.00 17.20     0.086 A 
HETATM    8  N1    D T 298       2.501   3.985  -8.748  1.00 17.20    -0.208 NA
HETATM    9  C7    D T 298       2.606   4.348  -7.421  1.00 17.20     0.284 A 
HETATM   10  O1    D T 298       1.707   4.992  -6.872  1.00 17.20    -0.265 OA
HETATM   11  C8    D T 298       3.841   3.915  -6.676  1.00 17.20     0.111 A 
HETATM   12  C10   D T 298       4.823   3.201  -7.311  1.00 17.20     0.085 A 
ENDROOT
BRANCH  11  13
HETATM   13  C9    D T 298       4.022   4.261  -5.280  1.00 17.20     0.169 A 
HETATM   14  N3    D T 298       4.495   3.517  -4.281  1.00 17.20    -0.225 NA
HETATM   15  C12   D T 298       4.452   4.303  -3.159  1.00 17.20     0.101 A 
HETATM   16  C13   D T 298       3.936   5.563  -3.456  1.00 17.20     0.101 A 
HETATM   17  C14   D T 298       4.836   4.003  -1.833  1.00 17.20     0.021 A 
HETATM   18  N4    D T 298       3.670   5.513  -4.803  1.00 17.20    -0.225 NA
HETATM   19  C17   D T 298       3.780   6.572  -2.493  1.00 17.20     0.021 A 
HETATM   20  C16   D T 298       4.169   6.256  -1.176  1.00 17.20     0.002 A 
HETATM   21  C15   D T 298       4.690   4.994  -0.848  1.00 17.20     0.002 A 
ENDBRANCH  11  13
BRANCH  12  22
HETATM   22  N2    D T 298       5.964   2.784  -6.617  1.00 17.20    -0.270 NA
BRANCH  22  23
HETATM   23  C11   D T 298       7.203   3.467  -6.276  1.00 20.30     0.137 C 
HETATM   24  C18   D T 298       8.118   3.548  -7.532  1.00 20.30     0.274 C 
HETATM   25  N5    D T 298       9.455   2.869  -7.231  1.00 20.30     0.139 N 
HETATM   26  C19   D T 298      10.151   3.580  -6.082  1.00 20.30     0.250 C 
HETATM   27  C21   D T 298       9.246   1.398  -6.882  1.00 20.30     0.250 C 
HETATM   28  C20   D T 298       9.256   3.489  -4.836  1.00 20.30     0.037 C 
HETATM   29  C23   D T 298       7.956   2.711  -5.151  1.00 20.30     0.029 C 
HETATM   30  C22   D T 298       8.355   1.304  -5.638  1.00 20.30     0.037 C 
ENDBRANCH  22  23
ENDBRANCH  12  22
TORSDOF 3
ENDMDL
MODEL 9
REMARK VINA RESULT:      -8.1      6.373      8.864
REMARK  3 active torsions:
REMARK  status: ('A' for Active; 'I' for Inactive)
REMARK    1  A    between atoms: C8_11  and  C9_12 
REMARK    2  A    between atoms: C10_13  and  N2_14 
REMARK    3  A    between atoms: N2_14  and  C11_15 
ROOT
HETATM    1  C1    D T 298      10.607   5.248  -4.130  1.00 17.20     0.036 A 
HETATM    2  C2    D T 298       9.450   4.441  -4.151  1.00 17.20     0.014 A 
HETATM    3  C3    D T 298       9.314   3.385  -5.054  1.00 17.20     0.058 A 
HETATM    4 CL     D T 298       7.884   2.432  -5.026  1.00 17.20    -0.082 Cl
HETATM    5  C4    D T 298      10.327   3.100  -5.972  1.00 17.20     0.013 A 
HETATM    6  C5    D T 298      11.494   3.882  -5.975  1.00 17.20     0.020 A 
HETATM    7  C6    D T 298      11.625   4.943  -5.061  1.00 17.20     0.086 A 
HETATM    8  N1    D T 298      12.804   5.703  -5.072  1.00 17.20    -0.208 NA
HETATM    9  C7    D T 298      13.041   6.754  -4.210  1.00 17.20     0.284 A 
HETATM   10  O1    D T 298      14.099   7.388  -4.266  1.00 17.20    -0.265 OA
HETATM   11  C8    D T 298      11.959   7.102  -3.222  1.00 17.20     0.111 A 
HETATM   12  C10   D T 298      10.795   6.381  -3.181  1.00 17.20     0.085 A 
ENDROOT
BRANCH  11  13
HETATM   13  C9    D T 298      12.138   8.192  -2.284  1.00 17.20     0.169 A 
HETATM   14  N3    D T 298      11.666   9.438  -2.339  1.00 17.20    -0.225 NA
HETATM   15  C12   D T 298      12.128  10.076  -1.217  1.00 17.20     0.101 A 
HETATM   16  C13   D T 298      12.910   9.219  -0.445  1.00 17.20     0.101 A 
HETATM   17  C14   D T 298      11.923  11.406  -0.787  1.00 17.20     0.021 A 
HETATM   18  N4    D T 298      12.903   8.034  -1.140  1.00 17.20    -0.225 NA
HETATM   19  C17   D T 298      13.511   9.610   0.761  1.00 17.20     0.021 A 
HETATM   20  C16   D T 298      13.296  10.940   1.175  1.00 17.20     0.002 A 
HETATM   21  C15   D T 298      12.514  11.825   0.416  1.00 17.20     0.002 A 
ENDBRANCH  11  13
BRANCH  12  22
HETATM   22  N2    D T 298       9.781   6.712  -2.275  1.00 17.20    -0.270 NA
BRANCH  22  23
HETATM   23  C11   D T 298       9.338   6.089  -1.037  1.00 20.30     0.137 C 
HETATM   24  C18   D T 298       7.783   6.049  -0.999  1.00 20.30     0.274 C 
HETATM   25  N5    D T 298       7.287   6.792   0.243  1.00 20.30     0.139 N 
HETATM   26  C19   D T 298       7.816   6.116   1.497  1.00 20.30     0.250 C 
HETATM   27  C21   D T 298       7.731   8.252   0.212  1.00 20.30     0.250 C 
HETATM   28  C20   D T 298       9.351   6.166   1.469  1.00 20.30     0.037 C 
HETATM   29  C23   D T 298       9.853   6.882   0.192  1.00 20.30     0.029 C 
HETATM   30  C22   D T 298       9.262   8.304   0.187  1.00 20.30     0.037 C 
ENDBRANCH  22  23
ENDBRANCH  12  22
TORSDOF 3
ENDMDL
