MODEL 1
REMARK VINA RESULT:      -9.4      0.000      0.000
REMARK  3 active torsions:
REMARK  status: ('A' for Active; 'I' for Inactive)
REMARK    1  A    between atoms: C5_5  and  C8_8 
REMARK    2  A    between atoms: C8_8  and  C14_14 
REMARK    3  A    between atoms: C17_17  and  C20_20 
ROOT
HETATM    1  C8    D T1351       4.621   2.076  -8.154  1.00 28.40     0.042 C 
HETATM    2  C9    D T1351       4.500   0.581  -8.520  1.00 31.07     0.046 C 
HETATM    3  C10   D T1351       3.243   0.250  -9.308  1.00 30.89     0.291 C 
HETATM    4  N11   D T1351       3.209   1.075 -10.548  1.00 29.44     0.339 N 
HETATM    5  C12   D T1351       3.216   2.533 -10.233  1.00 30.13     0.291 C 
HETATM    6  C13   D T1351       4.480   2.872  -9.464  1.00 30.34     0.046 C 
ENDROOT
BRANCH   1   7
HETATM    7  C5    D T1351       3.607   2.505  -7.080  1.00 28.95    -0.019 A 
HETATM    8  C4    D T1351       2.979   1.554  -6.277  1.00 28.71    -0.003 A 
HETATM    9  C3    D T1351       2.086   1.941  -5.301  1.00 30.92     0.011 A 
HETATM   10  C2    D T1351       1.820   3.283  -5.092  1.00 30.64     0.058 A 
HETATM   11 CL1    D T1351       0.696   3.760  -3.860  1.00 40.18    -0.082 Cl
HETATM   12  C7    D T1351       2.443   4.236  -5.881  1.00 32.16     0.011 A 
HETATM   13  C6    D T1351       3.334   3.853  -6.861  1.00 28.80    -0.003 A 
ENDBRANCH   1   7
BRANCH   1  14
HETATM   14  C14   D T1351       6.047   2.235  -7.594  1.00 30.67    -0.019 A 
HETATM   15  C15   D T1351       6.546   1.396  -6.601  1.00 28.60    -0.004 A 
HETATM   16  C16   D T1351       7.810   1.592  -6.090  1.00 33.11    -0.000 A 
HETATM   17  C17   D T1351       8.616   2.619  -6.569  1.00 31.57     0.003 A 
HETATM   18  C18   D T1351       8.110   3.468  -7.541  1.00 28.36    -0.000 A 
HETATM   19  C19   D T1351       6.844   3.278  -8.048  1.00 26.27    -0.004 A 
BRANCH  17  20
HETATM   20  C20   D T1351       9.934   2.879  -5.975  1.00 34.09     0.042 A 
HETATM   21  C21   D T1351      10.625   2.077  -5.059  1.00 35.67     0.124 A 
HETATM   22  N22   D T1351      11.763   2.655  -4.672  1.00 33.11    -0.146 NA
HETATM   23  N23   D T1351      11.781   3.857  -5.304  1.00 34.31    -0.146 NA
HETATM   24  C24   D T1351      10.690   4.021  -6.075  1.00 32.13     0.124 A 
ENDBRANCH  17  20
ENDBRANCH   1  14
TORSDOF 3
ENDMDL
MODEL 2
REMARK VINA RESULT:      -9.2      2.745      4.101
REMARK  3 active torsions:
REMARK  status: ('A' for Active; 'I' for Inactive)
REMARK    1  A    between atoms: C5_5  and  C8_8 
REMARK    2  A    between atoms: C8_8  and  C14_14 
REMARK    3  A    between atoms: C17_17  and  C20_20 
ROOT
HETATM    1  C8    D T1351       5.271   1.788  -7.761  1.00 28.40     0.042 C 
HETATM    2  C9    D T1351       4.325   2.850  -7.159  1.00 31.07     0.046 C 
HETATM    3  C10   D T1351       2.853   2.555  -7.397  1.00 30.89     0.291 C 
HETATM    4  N11   D T1351       2.524   1.214  -6.836  1.00 29.44     0.339 N 
HETATM    5  C12   D T1351       3.344   0.141  -7.472  1.00 30.13     0.291 C 
HETATM    6  C13   D T1351       4.815   0.422  -7.219  1.00 30.34     0.046 C 
ENDROOT
BRANCH   1   7
HETATM    7  C5    D T1351       5.314   1.840  -9.298  1.00 28.95    -0.019 A 
HETATM    8  C4    D T1351       4.788   2.931  -9.987  1.00 28.71    -0.003 A 
HETATM    9  C3    D T1351       4.846   2.985 -11.362  1.00 30.92     0.011 A 
HETATM   10  C2    D T1351       5.449   1.965 -12.075  1.00 30.64     0.058 A 
HETATM   11 CL1    D T1351       5.519   2.043 -13.807  1.00 40.18    -0.082 Cl
HETATM   12  C7    D T1351       5.981   0.878 -11.400  1.00 32.16     0.011 A 
HETATM   13  C6    D T1351       5.921   0.818 -10.023  1.00 28.80    -0.003 A 
ENDBRANCH   1   7
BRANCH   1  14
HETATM   14  C14   D T1351       6.665   2.135  -7.204  1.00 30.67    -0.019 A 
HETATM   15  C15   D T1351       7.258   1.388  -6.190  1.00 28.60    -0.004 A 
HETATM   16  C16   D T1351       8.487   1.750  -5.682  1.00 33.11    -0.000 A 
HETATM   17  C17   D T1351       9.163   2.856  -6.186  1.00 31.57     0.003 A 
HETATM   18  C18   D T1351       8.560   3.612  -7.179  1.00 28.36    -0.000 A 
HETATM   19  C19   D T1351       7.329   3.256  -7.682  1.00 26.27    -0.004 A 
BRANCH  17  20
HETATM   20  C20   D T1351      10.437   3.290  -5.597  1.00 34.09     0.042 A 
HETATM   21  C21   D T1351      11.236   2.585  -4.690  1.00 35.67     0.124 A 
HETATM   22  N22   D T1351      12.287   3.311  -4.306  1.00 33.11    -0.146 NA
HETATM   23  N23   D T1351      12.136   4.507  -4.930  1.00 34.31    -0.146 NA
HETATM   24  C24   D T1351      11.029   4.526  -5.694  1.00 32.13     0.124 A 
ENDBRANCH  17  20
ENDBRANCH   1  14
TORSDOF 3
ENDMDL
MODEL 3
REMARK VINA RESULT:      -8.7      4.325      6.469
REMARK  3 active torsions:
REMARK  status: ('A' for Active; 'I' for Inactive)
REMARK    1  A    between atoms: C5_5  and  C8_8 
REMARK    2  A    between atoms: C8_8  and  C14_14 
REMARK    3  A    between atoms: C17_17  and  C20_20 
ROOT
HETATM    1  C8    D T1351       3.675   2.025  -6.416  1.00 28.40     0.042 C 
HETATM    2  C9    D T1351       2.307   1.389  -6.745  1.00 31.07     0.046 C 
HETATM    3  C10   D T1351       2.414  -0.018  -7.312  1.00 30.89     0.291 C 
HETATM    4  N11   D T1351       3.152  -0.882  -6.347  1.00 29.44     0.339 N 
HETATM    5  C12   D T1351       4.523  -0.357  -6.083  1.00 30.13     0.291 C 
HETATM    6  C13   D T1351       4.419   1.040  -5.498  1.00 30.34     0.046 C 
ENDROOT
BRANCH   1   7
HETATM    7  C5    D T1351       4.474   2.391  -7.678  1.00 28.95    -0.019 A 
HETATM    8  C4    D T1351       5.861   2.528  -7.626  1.00 28.71    -0.003 A 
HETATM    9  C3    D T1351       6.578   2.835  -8.761  1.00 30.92     0.011 A 
HETATM   10  C2    D T1351       5.930   2.990  -9.973  1.00 30.64     0.058 A 
HETATM   11 CL1    D T1351       6.843   3.376 -11.398  1.00 40.18    -0.082 Cl
HETATM   12  C7    D T1351       4.553   2.852 -10.038  1.00 32.16     0.011 A 
HETATM   13  C6    D T1351       3.832   2.548  -8.903  1.00 28.80    -0.003 A 
ENDBRANCH   1   7
BRANCH   1  14
HETATM   14  C14   D T1351       3.338   3.313  -5.640  1.00 30.67    -0.019 A 
HETATM   15  C15   D T1351       2.271   4.131  -6.001  1.00 28.60    -0.004 A 
HETATM   16  C16   D T1351       2.023   5.300  -5.314  1.00 33.11    -0.000 A 
HETATM   17  C17   D T1351       2.822   5.673  -4.239  1.00 31.57     0.003 A 
HETATM   18  C18   D T1351       3.897   4.868  -3.896  1.00 28.36    -0.000 A 
HETATM   19  C19   D T1351       4.152   3.704  -4.586  1.00 26.27    -0.004 A 
BRANCH  17  20
HETATM   20  C20   D T1351       2.608   6.953  -3.552  1.00 34.09     0.042 A 
HETATM   21  C21   D T1351       3.171   8.194  -3.874  1.00 35.67     0.124 A 
HETATM   22  N22   D T1351       2.818   9.129  -2.991  1.00 33.11    -0.146 NA
HETATM   23  N23   D T1351       2.064   8.477  -2.069  1.00 34.31    -0.146 NA
HETATM   24  C24   D T1351       1.938   7.172  -2.373  1.00 32.13     0.124 A 
ENDBRANCH  17  20
ENDBRANCH   1  14
TORSDOF 3
ENDMDL
MODEL 4
REMARK VINA RESULT:      -8.7      4.023      6.535
REMARK  3 active torsions:
REMARK  status: ('A' for Active; 'I' for Inactive)
REMARK    1  A    between atoms: C5_5  and  C8_8 
REMARK    2  A    between atoms: C8_8  and  C14_14 
REMARK    3  A    between atoms: C17_17  and  C20_20 
ROOT
HETATM    1  C8    D T1351       3.785   1.873  -7.162  1.00 28.40     0.042 C 
HETATM    2  C9    D T1351       3.264   2.440  -8.500  1.00 31.07     0.046 C 
HETATM    3  C10   D T1351       3.467   1.499  -9.677  1.00 30.89     0.291 C 
HETATM    4  N11   D T1351       2.798   0.198  -9.387  1.00 29.44     0.339 N 
HETATM    5  C12   D T1351       3.352  -0.436  -8.155  1.00 30.13     0.291 C 
HETATM    6  C13   D T1351       3.133   0.493  -6.974  1.00 30.34     0.046 C 
ENDROOT
BRANCH   1   7
HETATM    7  C5    D T1351       5.321   1.824  -7.101  1.00 28.95    -0.019 A 
HETATM    8  C4    D T1351       6.092   2.468  -8.067  1.00 28.71    -0.003 A 
HETATM    9  C3    D T1351       7.468   2.441  -8.000  1.00 30.92     0.011 A 
HETATM   10  C2    D T1351       8.101   1.790  -6.956  1.00 30.64     0.058 A 
HETATM   11 CL1    D T1351       9.834   1.763  -6.878  1.00 40.18    -0.082 Cl
HETATM   12  C7    D T1351       7.345   1.151  -5.986  1.00 32.16     0.011 A 
HETATM   13  C6    D T1351       5.968   1.174  -6.053  1.00 28.80    -0.003 A 
ENDBRANCH   1   7
BRANCH   1  14
HETATM   14  C14   D T1351       3.268   2.849  -6.088  1.00 30.67    -0.019 A 
HETATM   15  C15   D T1351       2.126   2.579  -5.338  1.00 28.60    -0.004 A 
HETATM   16  C16   D T1351       1.663   3.493  -4.416  1.00 33.11    -0.000 A 
HETATM   17  C17   D T1351       2.337   4.691  -4.207  1.00 31.57     0.003 A 
HETATM   18  C18   D T1351       3.460   4.968  -4.971  1.00 28.36    -0.000 A 
HETATM   19  C19   D T1351       3.920   4.060  -5.898  1.00 26.27    -0.004 A 
BRANCH  17  20
HETATM   20  C20   D T1351       1.806   5.699  -3.280  1.00 34.09     0.042 A 
HETATM   21  C21   D T1351       0.553   5.702  -2.655  1.00 35.67     0.124 A 
HETATM   22  N22   D T1351       0.374   6.812  -1.938  1.00 33.11    -0.146 NA
HETATM   23  N23   D T1351       1.495   7.549  -2.141  1.00 34.31    -0.146 NA
HETATM   24  C24   D T1351       2.360   6.913  -2.953  1.00 32.13     0.124 A 
ENDBRANCH  17  20
ENDBRANCH   1  14
TORSDOF 3
ENDMDL
MODEL 5
REMARK VINA RESULT:      -8.4      4.924      7.915
REMARK  3 active torsions:
REMARK  status: ('A' for Active; 'I' for Inactive)
REMARK    1  A    between atoms: C5_5  and  C8_8 
REMARK    2  A    between atoms: C8_8  and  C14_14 
REMARK    3  A    between atoms: C17_17  and  C20_20 
ROOT
HETATM    1  C8    D T1351       2.942   6.724  -2.999  1.00 28.40     0.042 C 
HETATM    2  C9    D T1351       1.555   6.860  -2.334  1.00 31.07     0.046 C 
HETATM    3  C10   D T1351       1.385   8.149  -1.545  1.00 30.89     0.291 C 
HETATM    4  N11   D T1351       1.627   9.311  -2.446  1.00 29.44     0.339 N 
HETATM    5  C12   D T1351       3.001   9.274  -3.028  1.00 30.13     0.291 C 
HETATM    6  C13   D T1351       3.167   7.997  -3.833  1.00 30.34     0.046 C 
ENDROOT
BRANCH   1   7
HETATM    7  C5    D T1351       4.063   6.469  -1.978  1.00 28.95    -0.019 A 
HETATM    8  C4    D T1351       3.955   5.439  -1.045  1.00 28.71    -0.003 A 
HETATM    9  C3    D T1351       4.969   5.198  -0.145  1.00 30.92     0.011 A 
HETATM   10  C2    D T1351       6.120   5.965  -0.171  1.00 30.64     0.058 A 
HETATM   11 CL1    D T1351       7.393   5.654   0.966  1.00 40.18    -0.082 Cl
HETATM   12  C7    D T1351       6.242   6.989  -1.098  1.00 32.16     0.011 A 
HETATM   13  C6    D T1351       5.226   7.234  -1.998  1.00 28.80    -0.003 A 
ENDBRANCH   1   7
BRANCH   1  14
HETATM   14  C14   D T1351       2.818   5.502  -3.929  1.00 30.67    -0.019 A 
HETATM   15  C15   D T1351       1.680   4.701  -3.944  1.00 28.60    -0.004 A 
HETATM   16  C16   D T1351       1.618   3.589  -4.756  1.00 33.11    -0.000 A 
HETATM   17  C17   D T1351       2.684   3.259  -5.586  1.00 31.57     0.003 A 
HETATM   18  C18   D T1351       3.825   4.044  -5.553  1.00 28.36    -0.000 A 
HETATM   19  C19   D T1351       3.892   5.151  -4.737  1.00 26.27    -0.004 A 
BRANCH  17  20
HETATM   20  C20   D T1351       2.653   2.034  -6.397  1.00 34.09     0.042 A 
HETATM   21  C21   D T1351       3.078   1.882  -7.722  1.00 35.67     0.124 A 
HETATM   22  N22   D T1351       2.833   0.649  -8.170  1.00 33.11    -0.146 NA
HETATM   23  N23   D T1351       2.203   0.020  -7.145  1.00 34.31    -0.146 NA
HETATM   24  C24   D T1351       2.069   0.832  -6.080  1.00 32.13     0.124 A 
ENDBRANCH  17  20
ENDBRANCH   1  14
TORSDOF 3
ENDMDL
MODEL 6
REMARK VINA RESULT:      -8.3      3.755      6.833
REMARK  3 active torsions:
REMARK  status: ('A' for Active; 'I' for Inactive)
REMARK    1  A    between atoms: C5_5  and  C8_8 
REMARK    2  A    between atoms: C8_8  and  C14_14 
REMARK    3  A    between atoms: C17_17  and  C20_20 
ROOT
HETATM    1  C8    D T1351       7.098   2.615  -6.921  1.00 28.40     0.042 C 
HETATM    2  C9    D T1351       7.562   1.367  -6.141  1.00 31.07     0.046 C 
HETATM    3  C10   D T1351       8.968   0.915  -6.500  1.00 30.89     0.291 C 
HETATM    4  N11   D T1351       9.920   2.038  -6.265  1.00 29.44     0.339 N 
HETATM    5  C12   D T1351       9.568   3.233  -7.086  1.00 30.13     0.291 C 
HETATM    6  C13   D T1351       8.171   3.699  -6.715  1.00 30.34     0.046 C 
ENDROOT
BRANCH   1   7
HETATM    7  C5    D T1351       6.826   2.316  -8.405  1.00 28.95    -0.019 A 
HETATM    8  C4    D T1351       5.979   1.272  -8.776  1.00 28.71    -0.003 A 
HETATM    9  C3    D T1351       5.720   1.018 -10.105  1.00 30.92     0.011 A 
HETATM   10  C2    D T1351       6.281   1.813 -11.088  1.00 30.64     0.058 A 
HETATM   11 CL1    D T1351       5.947   1.486 -12.759  1.00 40.18    -0.082 Cl
HETATM   12  C7    D T1351       7.119   2.857 -10.732  1.00 32.16     0.011 A 
HETATM   13  C6    D T1351       7.384   3.111  -9.402  1.00 28.80    -0.003 A 
ENDBRANCH   1   7
BRANCH   1  14
HETATM   14  C14   D T1351       5.783   3.043  -6.243  1.00 30.67    -0.019 A 
HETATM   15  C15   D T1351       4.777   3.707  -6.940  1.00 28.60    -0.004 A 
HETATM   16  C16   D T1351       3.631   4.116  -6.293  1.00 33.11    -0.000 A 
HETATM   17  C17   D T1351       3.452   3.859  -4.939  1.00 31.57     0.003 A 
HETATM   18  C18   D T1351       4.465   3.218  -4.241  1.00 28.36    -0.000 A 
HETATM   19  C19   D T1351       5.614   2.815  -4.883  1.00 26.27    -0.004 A 
BRANCH  17  20
HETATM   20  C20   D T1351       2.268   4.359  -4.229  1.00 34.09     0.042 A 
HETATM   21  C21   D T1351       2.168   5.523  -3.458  1.00 35.67     0.124 A 
HETATM   22  N22   D T1351       0.963   5.630  -2.896  1.00 33.11    -0.146 NA
HETATM   23  N23   D T1351       0.301   4.504  -3.266  1.00 34.31    -0.146 NA
HETATM   24  C24   D T1351       1.065   3.720  -4.050  1.00 32.13     0.124 A 
ENDBRANCH  17  20
ENDBRANCH   1  14
TORSDOF 3
ENDMDL
MODEL 7
REMARK VINA RESULT:      -8.2      7.230      9.890
REMARK  3 active torsions:
REMARK  status: ('A' for Active; 'I' for Inactive)
REMARK    1  A    between atoms: C5_5  and  C8_8 
REMARK    2  A    between atoms: C8_8  and  C14_14 
REMARK    3  A    between atoms: C17_17  and  C20_20 
ROOT
HETATM    1  C8    D T1351       6.154   7.345   0.036  1.00 28.40     0.042 C 
HETATM    2  C9    D T1351       5.032   8.088   0.793  1.00 31.07     0.046 C 
HETATM    3  C10   D T1351       5.533   9.262   1.619  1.00 30.89     0.291 C 
HETATM    4  N11   D T1351       6.257  10.215   0.731  1.00 29.44     0.339 N 
HETATM    5  C12   D T1351       7.418   9.560   0.061  1.00 30.13     0.291 C 
HETATM    6  C13   D T1351       6.920   8.400  -0.782  1.00 30.34     0.046 C 
ENDROOT
BRANCH   1   7
HETATM    7  C5    D T1351       7.065   6.538   0.977  1.00 28.95    -0.019 A 
HETATM    8  C4    D T1351       6.521   5.750   1.989  1.00 28.71    -0.003 A 
HETATM    9  C3    D T1351       7.338   5.011   2.818  1.00 30.92     0.011 A 
HETATM   10  C2    D T1351       8.709   5.026   2.638  1.00 30.64     0.058 A 
HETATM   11 CL1    D T1351       9.729   4.091   3.685  1.00 40.18    -0.082 Cl
HETATM   12  C7    D T1351       9.261   5.801   1.631  1.00 32.16     0.011 A 
HETATM   13  C6    D T1351       8.447   6.545   0.802  1.00 28.80    -0.003 A 
ENDBRANCH   1   7
BRANCH   1  14
HETATM   14  C14   D T1351       5.422   6.377  -0.912  1.00 30.67    -0.019 A 
HETATM   15  C15   D T1351       6.046   5.248  -1.437  1.00 28.60    -0.004 A 
HETATM   16  C16   D T1351       5.378   4.426  -2.318  1.00 33.11    -0.000 A 
HETATM   17  C17   D T1351       4.064   4.699  -2.683  1.00 31.57     0.003 A 
HETATM   18  C18   D T1351       3.452   5.834  -2.177  1.00 28.36    -0.000 A 
HETATM   19  C19   D T1351       4.120   6.662  -1.303  1.00 26.27    -0.004 A 
BRANCH  17  20
HETATM   20  C20   D T1351       3.373   3.868  -3.679  1.00 34.09     0.042 A 
HETATM   21  C21   D T1351       2.031   3.951  -4.069  1.00 35.67     0.124 A 
HETATM   22  N22   D T1351       1.722   2.991  -4.942  1.00 33.11    -0.146 NA
HETATM   23  N23   D T1351       2.856   2.257  -5.076  1.00 34.31    -0.146 NA
HETATM   24  C24   D T1351       3.852   2.751  -4.318  1.00 32.13     0.124 A 
ENDBRANCH  17  20
ENDBRANCH   1  14
TORSDOF 3
ENDMDL
MODEL 8
REMARK VINA RESULT:      -8.1      6.757      9.573
REMARK  3 active torsions:
REMARK  status: ('A' for Active; 'I' for Inactive)
REMARK    1  A    between atoms: C5_5  and  C8_8 
REMARK    2  A    between atoms: C8_8  and  C14_14 
REMARK    3  A    between atoms: C17_17  and  C20_20 
ROOT
HETATM    1  C8    D T1351       5.329   6.461   0.283  1.00 28.40     0.042 C 
HETATM    2  C9    D T1351       4.893   5.430   1.347  1.00 31.07     0.046 C 
HETATM    3  C10   D T1351       5.089   5.913   2.775  1.00 30.89     0.291 C 
HETATM    4  N11   D T1351       4.338   7.186   2.971  1.00 29.44     0.339 N 
HETATM    5  C12   D T1351       4.807   8.245   2.030  1.00 30.13     0.291 C 
HETATM    6  C13   D T1351       4.593   7.774   0.603  1.00 30.34     0.046 C 
ENDROOT
BRANCH   1   7
HETATM    7  C5    D T1351       6.856   6.629   0.217  1.00 28.95    -0.019 A 
HETATM    8  C4    D T1351       7.429   7.589  -0.616  1.00 28.71    -0.003 A 
HETATM    9  C3    D T1351       8.797   7.754  -0.659  1.00 30.92     0.011 A 
HETATM   10  C2    D T1351       9.617   6.980   0.143  1.00 30.64     0.058 A 
HETATM   11 CL1    D T1351      11.337   7.196   0.083  1.00 40.18    -0.082 Cl
HETATM   12  C7    D T1351       9.058   6.027   0.979  1.00 32.16     0.011 A 
HETATM   13  C6    D T1351       7.690   5.857   1.022  1.00 28.80    -0.003 A 
ENDBRANCH   1   7
BRANCH   1  14
HETATM   14  C14   D T1351       4.825   5.889  -1.055  1.00 30.67    -0.019 A 
HETATM   15  C15   D T1351       5.163   4.607  -1.482  1.00 28.60    -0.004 A 
HETATM   16  C16   D T1351       4.732   4.141  -2.705  1.00 33.11    -0.000 A 
HETATM   17  C17   D T1351       3.940   4.936  -3.526  1.00 31.57     0.003 A 
HETATM   18  C18   D T1351       3.624   6.220  -3.111  1.00 28.36    -0.000 A 
HETATM   19  C19   D T1351       4.060   6.690  -1.892  1.00 26.27    -0.004 A 
BRANCH  17  20
HETATM   20  C20   D T1351       3.542   4.473  -4.862  1.00 34.09     0.042 A 
HETATM   21  C21   D T1351       4.337   3.803  -5.800  1.00 35.67     0.124 A 
HETATM   22  N22   D T1351       3.674   3.601  -6.940  1.00 33.11    -0.146 NA
HETATM   23  N23   D T1351       2.463   4.185  -6.752  1.00 34.31    -0.146 NA
HETATM   24  C24   D T1351       2.366   4.728  -5.524  1.00 32.13     0.124 A 
ENDBRANCH  17  20
ENDBRANCH   1  14
TORSDOF 3
ENDMDL
MODEL 9
REMARK VINA RESULT:      -8.1      4.626      6.974
REMARK  3 active torsions:
REMARK  status: ('A' for Active; 'I' for Inactive)
REMARK    1  A    between atoms: C5_5  and  C8_8 
REMARK    2  A    between atoms: C8_8  and  C14_14 
REMARK    3  A    between atoms: C17_17  and  C20_20 
ROOT
HETATM    1  C8    D T1351       4.076   2.632  -5.741  1.00 28.40     0.042 C 
HETATM    2  C9    D T1351       3.236   2.604  -7.036  1.00 31.07     0.046 C 
HETATM    3  C10   D T1351       3.438   1.343  -7.862  1.00 30.89     0.291 C 
HETATM    4  N11   D T1351       3.114   0.152  -7.027  1.00 29.44     0.339 N 
HETATM    5  C12   D T1351       3.980   0.084  -5.815  1.00 30.13     0.291 C 
HETATM    6  C13   D T1351       3.767   1.332  -4.977  1.00 30.34     0.046 C 
ENDROOT
BRANCH   1   7
HETATM    7  C5    D T1351       5.577   2.824  -6.015  1.00 28.95    -0.019 A 
HETATM    8  C4    D T1351       6.528   2.403  -5.087  1.00 28.71    -0.003 A 
HETATM    9  C3    D T1351       7.873   2.557  -5.343  1.00 30.92     0.011 A 
HETATM   10  C2    D T1351       8.296   3.113  -6.537  1.00 30.64     0.058 A 
HETATM   11 CL1    D T1351       9.992   3.301  -6.850  1.00 40.18    -0.082 Cl
HETATM   12  C7    D T1351       7.359   3.531  -7.469  1.00 32.16     0.011 A 
HETATM   13  C6    D T1351       6.012   3.381  -7.214  1.00 28.80    -0.003 A 
ENDBRANCH   1   7
BRANCH   1  14
HETATM   14  C14   D T1351       3.547   3.843  -4.950  1.00 30.67    -0.019 A 
HETATM   15  C15   D T1351       3.987   4.128  -3.659  1.00 28.60    -0.004 A 
HETATM   16  C16   D T1351       3.461   5.194  -2.961  1.00 33.11    -0.000 A 
HETATM   17  C17   D T1351       2.497   6.012  -3.539  1.00 31.57     0.003 A 
HETATM   18  C18   D T1351       2.043   5.713  -4.814  1.00 28.36    -0.000 A 
HETATM   19  C19   D T1351       2.561   4.644  -5.511  1.00 26.27    -0.004 A 
BRANCH  17  20
HETATM   20  C20   D T1351       1.880   7.102  -2.772  1.00 34.09     0.042 A 
HETATM   21  C21   D T1351       0.665   7.069  -2.077  1.00 35.67     0.124 A 
HETATM   22  N22   D T1351       0.374   8.262  -1.555  1.00 33.11    -0.146 NA
HETATM   23  N23   D T1351       1.381   9.078  -1.958  1.00 34.31    -0.146 NA
HETATM   24  C24   D T1351       2.285   8.413  -2.700  1.00 32.13     0.124 A 
ENDBRANCH  17  20
ENDBRANCH   1  14
TORSDOF 3
ENDMDL
