MODEL 1
REMARK VINA RESULT:      -7.7      0.000      0.000
REMARK  2 active torsions:
REMARK  status: ('A' for Active; 'I' for Inactive)
REMARK    1  A    between atoms: C5_4  and  O7_13 
REMARK    2  A    between atoms: C8_10  and  O7_13 
ROOT
HETATM    1  O7    D T 601       5.785   0.192  -7.435  1.00 22.91    -0.304 OA
ENDROOT
BRANCH   1   2
HETATM    2  C5    D T 601       5.014   1.075  -6.677  1.00 20.74     0.121 A 
HETATM    3  C6    D T 601       3.957   0.589  -5.885  1.00 18.69     0.136 A 
HETATM    4  C1    D T 601       3.157   1.510  -5.090  1.00 19.14     0.094 A 
HETATM    5  O17   D T 601       3.716  -0.752  -5.889  1.00 19.23    -0.192 OA
HETATM    6  C2    D T 601       3.448   2.913  -5.118  1.00 17.42     0.042 A 
HETATM    7  C3    D T 601       4.519   3.390  -5.926  1.00 18.45     0.010 A 
HETATM    8 CL14   D T 601       2.541   4.007  -4.204  1.00  7.86    -0.087 Cl
HETATM    9  C4    D T 601       5.305   2.470  -6.705  1.00 18.04     0.027 A 
ENDBRANCH   1   2
BRANCH   1  10
HETATM   10  C8    D T 601       6.213   0.524  -8.739  1.00 22.66     0.111 A 
HETATM   11  C9    D T 601       5.240   0.429  -9.809  1.00 21.19     0.081 A 
HETATM   12  C10   D T 601       5.641   0.733 -11.147  1.00 21.37     0.025 A 
HETATM   13 CL16   D T 601       3.596  -0.070  -9.506  1.00 20.16    -0.080 Cl
HETATM   14  C11   D T 601       7.001   1.137 -11.427  1.00 19.62     0.059 A 
HETATM   15  C12   D T 601       7.961   1.240 -10.370  1.00 21.14     0.013 A 
HETATM   16 CL15   D T 601       7.470   1.484 -13.020  1.00 11.58    -0.082 Cl
HETATM   17  C13   D T 601       7.576   0.936  -9.038  1.00 20.93     0.026 A 
ENDBRANCH   1  10
TORSDOF 2
ENDMDL
MODEL 2
REMARK VINA RESULT:      -7.6      1.153      5.897
REMARK  2 active torsions:
REMARK  status: ('A' for Active; 'I' for Inactive)
REMARK    1  A    between atoms: C5_4  and  O7_13 
REMARK    2  A    between atoms: C8_10  and  O7_13 
ROOT
HETATM    1  O7    D T 601       5.858   0.143  -7.788  1.00 22.91    -0.304 OA
ENDROOT
BRANCH   1   2
HETATM    2  C5    D T 601       6.238   0.453  -9.094  1.00 20.74     0.121 A 
HETATM    3  C6    D T 601       5.269   0.540 -10.111  1.00 18.69     0.136 A 
HETATM    4  C1    D T 601       5.666   0.870 -11.472  1.00 19.14     0.094 A 
HETATM    5  O17   D T 601       3.968   0.308  -9.778  1.00 19.23    -0.192 OA
HETATM    6  C2    D T 601       7.048   1.104 -11.775  1.00 17.42     0.042 A 
HETATM    7  C3    D T 601       8.017   1.010 -10.736  1.00 18.45     0.010 A 
HETATM    8 CL14   D T 601       7.540   1.492 -13.343  1.00  7.86    -0.087 Cl
HETATM    9  C4    D T 601       7.612   0.686  -9.393  1.00 18.04     0.027 A 
ENDBRANCH   1   2
BRANCH   1  10
HETATM   10  C8    D T 601       5.145   1.065  -6.991  1.00 22.66     0.111 A 
HETATM   11  C9    D T 601       4.036   0.557  -6.206  1.00 21.19     0.081 A 
HETATM   12  C10   D T 601       3.274   1.463  -5.406  1.00 21.37     0.025 A 
HETATM   13 CL16   D T 601       3.595  -1.131  -6.236  1.00 20.16    -0.080 Cl
HETATM   14  C11   D T 601       3.611   2.869  -5.373  1.00 19.62     0.059 A 
HETATM   15  C12   D T 601       4.712   3.370  -6.139  1.00 21.14     0.013 A 
HETATM   16 CL15   D T 601       2.694   3.939  -4.428  1.00 11.58    -0.082 Cl
HETATM   17  C13   D T 601       5.473   2.482  -6.942  1.00 20.93     0.026 A 
ENDBRANCH   1  10
TORSDOF 2
ENDMDL
MODEL 3
REMARK VINA RESULT:      -7.4      2.489      3.066
REMARK  2 active torsions:
REMARK  status: ('A' for Active; 'I' for Inactive)
REMARK    1  A    between atoms: C5_4  and  O7_13 
REMARK    2  A    between atoms: C8_10  and  O7_13 
ROOT
HETATM    1  O7    D T 601       4.998   3.323  -7.557  1.00 22.91    -0.304 OA
ENDROOT
BRANCH   1   2
HETATM    2  C5    D T 601       4.607   2.537  -6.471  1.00 20.74     0.121 A 
HETATM    3  C6    D T 601       4.806   2.997  -5.157  1.00 18.69     0.136 A 
HETATM    4  C1    D T 601       4.392   2.179  -4.026  1.00 19.14     0.094 A 
HETATM    5  O17   D T 601       5.390   4.217  -4.986  1.00 19.23    -0.192 OA
HETATM    6  C2    D T 601       3.782   0.902  -4.256  1.00 17.42     0.042 A 
HETATM    7  C3    D T 601       3.590   0.448  -5.592  1.00 18.45     0.010 A 
HETATM    8 CL14   D T 601       3.287  -0.069  -2.965  1.00  7.86    -0.087 Cl
HETATM    9  C4    D T 601       4.001   1.268  -6.702  1.00 18.04     0.027 A 
ENDBRANCH   1   2
BRANCH   1  10
HETATM   10  C8    D T 601       5.601   2.751  -8.699  1.00 22.66     0.111 A 
HETATM   11  C9    D T 601       7.016   2.444  -8.628  1.00 21.19     0.081 A 
HETATM   12  C10   D T 601       7.668   1.888  -9.772  1.00 21.37     0.025 A 
HETATM   13 CL16   D T 601       7.948   2.760  -7.187  1.00 20.16    -0.080 Cl
HETATM   14  C11   D T 601       6.921   1.628 -10.983  1.00 19.62     0.059 A 
HETATM   15  C12   D T 601       5.522   1.922 -11.051  1.00 21.14     0.013 A 
HETATM   16 CL15   D T 601       7.706   0.978 -12.339  1.00 11.58    -0.082 Cl
HETATM   17  C13   D T 601       4.864   2.479  -9.924  1.00 20.93     0.026 A 
ENDBRANCH   1  10
TORSDOF 2
ENDMDL
MODEL 4
REMARK VINA RESULT:      -7.4      1.435      6.075
REMARK  2 active torsions:
REMARK  status: ('A' for Active; 'I' for Inactive)
REMARK    1  A    between atoms: C5_4  and  O7_13 
REMARK    2  A    between atoms: C8_10  and  O7_13 
ROOT
HETATM    1  O7    D T 601       5.339   0.528  -7.108  1.00 22.91    -0.304 OA
ENDROOT
BRANCH   1   2
HETATM    2  C5    D T 601       5.765   0.696  -8.427  1.00 20.74     0.121 A 
HETATM    3  C6    D T 601       7.125   0.926  -8.707  1.00 18.69     0.136 A 
HETATM    4  C1    D T 601       7.569   1.095 -10.083  1.00 19.14     0.094 A 
HETATM    5  O17   D T 601       7.994   0.982  -7.659  1.00 19.23    -0.192 OA
HETATM    6  C2    D T 601       6.616   1.028 -11.152  1.00 17.42     0.042 A 
HETATM    7  C3    D T 601       5.243   0.798 -10.853  1.00 18.45     0.010 A 
HETATM    8 CL14   D T 601       7.100   1.216 -12.760  1.00  7.86    -0.087 Cl
HETATM    9  C4    D T 601       4.817   0.629  -9.489  1.00 18.04     0.027 A 
ENDBRANCH   1   2
BRANCH   1  10
HETATM   10  C8    D T 601       4.714   1.576  -6.399  1.00 22.66     0.111 A 
HETATM   11  C9    D T 601       3.901   1.219  -5.253  1.00 21.19     0.081 A 
HETATM   12  C10   D T 601       3.231   2.250  -4.523  1.00 21.37     0.025 A 
HETATM   13 CL16   D T 601       3.700  -0.442  -4.757  1.00 20.16    -0.080 Cl
HETATM   14  C11   D T 601       3.370   3.634  -4.920  1.00 19.62     0.059 A 
HETATM   15  C12   D T 601       4.181   3.988  -6.045  1.00 21.14     0.013 A 
HETATM   16 CL15   D T 601       2.563   4.848  -4.054  1.00 11.58    -0.082 Cl
HETATM   17  C13   D T 601       4.846   2.974  -6.781  1.00 20.93     0.026 A 
ENDBRANCH   1  10
TORSDOF 2
ENDMDL
MODEL 5
REMARK VINA RESULT:      -7.3      1.421      1.869
REMARK  2 active torsions:
REMARK  status: ('A' for Active; 'I' for Inactive)
REMARK    1  A    between atoms: C5_4  and  O7_13 
REMARK    2  A    between atoms: C8_10  and  O7_13 
ROOT
HETATM    1  O7    D T 601       5.314   0.338  -7.049  1.00 22.91    -0.304 OA
ENDROOT
BRANCH   1   2
HETATM    2  C5    D T 601       4.654   1.328  -6.319  1.00 20.74     0.121 A 
HETATM    3  C6    D T 601       3.834   0.976  -5.231  1.00 18.69     0.136 A 
HETATM    4  C1    D T 601       3.150   2.009  -4.467  1.00 19.14     0.094 A 
HETATM    5  O17   D T 601       3.708  -0.346  -4.925  1.00 19.23    -0.192 OA
HETATM    6  C2    D T 601       3.313   3.387  -4.828  1.00 17.42     0.042 A 
HETATM    7  C3    D T 601       4.143   3.728  -5.933  1.00 18.45     0.010 A 
HETATM    8 CL14   D T 601       2.536   4.610  -3.959  1.00  7.86    -0.087 Cl
HETATM    9  C4    D T 601       4.817   2.697  -6.679  1.00 18.04     0.027 A 
ENDBRANCH   1   2
BRANCH   1  10
HETATM   10  C8    D T 601       5.732   0.561  -8.379  1.00 22.66     0.111 A 
HETATM   11  C9    D T 601       7.115   0.938  -8.594  1.00 21.19     0.081 A 
HETATM   12  C10   D T 601       7.570   1.196  -9.924  1.00 21.37     0.025 A 
HETATM   13 CL16   D T 601       8.232   1.107  -7.264  1.00 20.16    -0.080 Cl
HETATM   14  C11   D T 601       6.662   1.076 -11.043  1.00 19.62     0.059 A 
HETATM   15  C12   D T 601       5.299   0.694 -10.833  1.00 21.14     0.013 A 
HETATM   16 CL15   D T 601       7.209   1.395 -12.616  1.00 11.58    -0.082 Cl
HETATM   17  C13   D T 601       4.833   0.440  -9.517  1.00 20.93     0.026 A 
ENDBRANCH   1  10
TORSDOF 2
ENDMDL
MODEL 6
REMARK VINA RESULT:      -7.3      3.201      3.612
REMARK  2 active torsions:
REMARK  status: ('A' for Active; 'I' for Inactive)
REMARK    1  A    between atoms: C5_4  and  O7_13 
REMARK    2  A    between atoms: C8_10  and  O7_13 
ROOT
HETATM    1  O7    D T 601       6.269   1.594  -7.716  1.00 22.91    -0.304 OA
ENDROOT
BRANCH   1   2
HETATM    2  C5    D T 601       7.280   1.575  -6.754  1.00 20.74     0.121 A 
HETATM    3  C6    D T 601       7.283   0.588  -5.751  1.00 18.69     0.136 A 
HETATM    4  C1    D T 601       8.342   0.566  -4.752  1.00 19.14     0.094 A 
HETATM    5  O17   D T 601       6.276  -0.329  -5.751  1.00 19.23    -0.192 OA
HETATM    6  C2    D T 601       9.381   1.554  -4.792  1.00 17.42     0.042 A 
HETATM    7  C3    D T 601       9.362   2.548  -5.811  1.00 18.45     0.010 A 
HETATM    8 CL14   D T 601      10.625   1.553  -3.649  1.00  7.86    -0.087 Cl
HETATM    9  C4    D T 601       8.312   2.557  -6.795  1.00 18.04     0.027 A 
ENDBRANCH   1   2
BRANCH   1  10
HETATM   10  C8    D T 601       6.562   1.486  -9.093  1.00 22.66     0.111 A 
HETATM   11  C9    D T 601       5.917   2.423  -9.991  1.00 21.19     0.081 A 
HETATM   12  C10   D T 601       6.169   2.330 -11.395  1.00 21.37     0.025 A 
HETATM   13 CL16   D T 601       4.823   3.648  -9.402  1.00 20.16    -0.080 Cl
HETATM   14  C11   D T 601       7.062   1.316 -11.911  1.00 19.62     0.059 A 
HETATM   15  C12   D T 601       7.706   0.396 -11.024  1.00 21.14     0.013 A 
HETATM   16 CL15   D T 601       7.345   1.207 -13.580  1.00 11.58    -0.082 Cl
HETATM   17  C13   D T 601       7.461   0.475  -9.629  1.00 20.93     0.026 A 
ENDBRANCH   1  10
TORSDOF 2
ENDMDL
MODEL 7
REMARK VINA RESULT:      -7.2      2.055      6.297
REMARK  2 active torsions:
REMARK  status: ('A' for Active; 'I' for Inactive)
REMARK    1  A    between atoms: C5_4  and  O7_13 
REMARK    2  A    between atoms: C8_10  and  O7_13 
ROOT
HETATM    1  O7    D T 601       4.769   3.060  -7.612  1.00 22.91    -0.304 OA
ENDROOT
BRANCH   1   2
HETATM    2  C5    D T 601       5.485   2.537  -8.689  1.00 20.74     0.121 A 
HETATM    3  C6    D T 601       6.890   2.474  -8.640  1.00 18.69     0.136 A 
HETATM    4  C1    D T 601       7.636   1.922  -9.762  1.00 19.14     0.094 A 
HETATM    5  O17   D T 601       7.514   2.940  -7.523  1.00 19.23    -0.192 OA
HETATM    6  C2    D T 601       6.935   1.444 -10.918  1.00 17.42     0.042 A 
HETATM    7  C3    D T 601       5.513   1.517 -10.954  1.00 18.45     0.010 A 
HETATM    8 CL14   D T 601       7.771   0.794 -12.235  1.00  7.86    -0.087 Cl
HETATM    9  C4    D T 601       4.787   2.061  -9.837  1.00 18.04     0.027 A 
ENDBRANCH   1   2
BRANCH   1  10
HETATM   10  C8    D T 601       4.395   2.253  -6.515  1.00 22.66     0.111 A 
HETATM   11  C9    D T 601       3.747   2.904  -5.394  1.00 21.19     0.081 A 
HETATM   12  C10   D T 601       3.375   2.125  -4.254  1.00 21.37     0.025 A 
HETATM   13 CL16   D T 601       3.430   4.620  -5.392  1.00 20.16    -0.080 Cl
HETATM   14  C11   D T 601       3.638   0.703  -4.224  1.00 19.62     0.059 A 
HETATM   15  C12   D T 601       4.269   0.058  -5.335  1.00 21.14     0.013 A 
HETATM   16 CL15   D T 601       3.203  -0.210  -2.863  1.00 11.58    -0.082 Cl
HETATM   17  C13   D T 601       4.647   0.821  -6.470  1.00 20.93     0.026 A 
ENDBRANCH   1  10
TORSDOF 2
ENDMDL
MODEL 8
REMARK VINA RESULT:      -7.2      2.573      6.345
REMARK  2 active torsions:
REMARK  status: ('A' for Active; 'I' for Inactive)
REMARK    1  A    between atoms: C5_4  and  O7_13 
REMARK    2  A    between atoms: C8_10  and  O7_13 
ROOT
HETATM    1  O7    D T 601       6.202   3.255  -7.129  1.00 22.91    -0.304 OA
ENDROOT
BRANCH   1   2
HETATM    2  C5    D T 601       6.452   2.768  -8.413  1.00 20.74     0.121 A 
HETATM    3  C6    D T 601       5.619   3.139  -9.484  1.00 18.69     0.136 A 
HETATM    4  C1    D T 601       5.884   2.635 -10.824  1.00 19.14     0.094 A 
HETATM    5  O17   D T 601       4.574   3.975  -9.225  1.00 19.23    -0.192 OA
HETATM    6  C2    D T 601       6.995   1.758 -11.048  1.00 17.42     0.042 A 
HETATM    7  C3    D T 601       7.827   1.388  -9.954  1.00 18.45     0.010 A 
HETATM    8 CL14   D T 601       7.331   1.158 -12.592  1.00  7.86    -0.087 Cl
HETATM    9  C4    D T 601       7.557   1.896  -8.634  1.00 18.04     0.027 A 
ENDBRANCH   1   2
BRANCH   1  10
HETATM   10  C8    D T 601       5.492   2.490  -6.178  1.00 22.66     0.111 A 
HETATM   11  C9    D T 601       6.248   1.907  -5.086  1.00 21.19     0.081 A 
HETATM   12  C10   D T 601       5.570   1.106  -4.117  1.00 21.37     0.025 A 
HETATM   13 CL16   D T 601       7.971   2.141  -4.942  1.00 20.16    -0.080 Cl
HETATM   14  C11   D T 601       4.144   0.886  -4.220  1.00 19.62     0.059 A 
HETATM   15  C12   D T 601       3.395   1.469  -5.291  1.00 21.14     0.013 A 
HETATM   16 CL15   D T 601       3.350  -0.075  -3.070  1.00 11.58    -0.082 Cl
HETATM   17  C13   D T 601       4.057   2.262  -6.263  1.00 20.93     0.026 A 
ENDBRANCH   1  10
TORSDOF 2
ENDMDL
MODEL 9
REMARK VINA RESULT:      -7.2      2.382      6.296
REMARK  2 active torsions:
REMARK  status: ('A' for Active; 'I' for Inactive)
REMARK    1  A    between atoms: C5_4  and  O7_13 
REMARK    2  A    between atoms: C8_10  and  O7_13 
ROOT
HETATM    1  O7    D T 601       4.038   1.794  -7.055  1.00 22.91    -0.304 OA
ENDROOT
BRANCH   1   2
HETATM    2  C5    D T 601       4.971   1.492  -8.048  1.00 20.74     0.121 A 
HETATM    3  C6    D T 601       5.280   2.440  -9.040  1.00 18.69     0.136 A 
HETATM    4  C1    D T 601       6.258   2.126 -10.072  1.00 19.14     0.094 A 
HETATM    5  O17   D T 601       4.640   3.643  -8.999  1.00 19.23    -0.192 OA
HETATM    6  C2    D T 601       6.904   0.846 -10.075  1.00 17.42     0.042 A 
HETATM    7  C3    D T 601       6.579  -0.104  -9.067  1.00 18.45     0.010 A 
HETATM    8 CL14   D T 601       8.045   0.452 -11.257  1.00  7.86    -0.087 Cl
HETATM    9  C4    D T 601       5.613   0.219  -8.049  1.00 18.04     0.027 A 
ENDBRANCH   1   2
BRANCH   1  10
HETATM   10  C8    D T 601       4.442   2.258  -5.784  1.00 22.66     0.111 A 
HETATM   11  C9    D T 601       4.408   1.314  -4.684  1.00 21.19     0.081 A 
HETATM   12  C10   D T 601       4.785   1.752  -3.376  1.00 21.37     0.025 A 
HETATM   13 CL16   D T 601       3.895  -0.338  -4.913  1.00 20.16    -0.080 Cl
HETATM   14  C11   D T 601       5.202   3.119  -3.156  1.00 19.62     0.059 A 
HETATM   15  C12   D T 601       5.245   4.049  -4.244  1.00 21.14     0.013 A 
HETATM   16 CL15   D T 601       5.638   3.632  -1.599  1.00 11.58    -0.082 Cl
HETATM   17  C13   D T 601       4.868   3.629  -5.545  1.00 20.93     0.026 A 
ENDBRANCH   1  10
TORSDOF 2
ENDMDL
