MODEL 1
REMARK VINA RESULT:      -9.9      0.000      0.000
REMARK  5 active torsions:
REMARK  status: ('A' for Active; 'I' for Inactive)
REMARK    1  A    between atoms: C17_7  and  C21_10 
REMARK    2  A    between atoms: C21_10  and  O27_12 
REMARK    3  A    between atoms: O27_12  and  C15_13 
REMARK    4  A    between atoms: C14_19  and  C16_20 
REMARK    5  A    between atoms: N26_23  and  C20_25 
ROOT
HETATM    1  C15   D T9000       6.247   6.739  -0.856  1.00 27.55     0.125 A 
HETATM    2  C4    D T9000       6.016   5.446  -1.439  1.00 28.27     0.029 A 
HETATM    3  C19   D T9000       5.537   7.833  -1.459  1.00 26.72     0.173 A 
HETATM    4  N22   D T9000       5.711   9.131  -0.934  1.00 25.80    -0.078 NA
HETATM    5  N23   D T9000       4.690   7.708  -2.520  1.00 24.81    -0.228 NA
HETATM    6  C5    D T9000       4.493   6.460  -3.053  1.00 28.27     0.100 A 
HETATM    7  C14   D T9000       5.134   5.277  -2.555  1.00 30.75     0.024 A 
ENDROOT
BRANCH   1   8
HETATM    8  O27   D T9000       7.076   6.997   0.250  1.00 29.26    -0.326 OA
BRANCH   8   9
HETATM    9  C21   D T9000       6.733   6.775   1.666  1.00 32.38     0.145 C 
HETATM   10  C1    D T9000       6.865   8.152   2.341  1.00 32.72     0.038 C 
BRANCH   9  11
HETATM   11  C17   D T9000       7.618   5.697   2.407  1.00 34.58     0.029 A 
HETATM   12  C13   D T9000       9.043   5.604   2.106  1.00 34.39     0.057 A 
HETATM   13 CL     D T9000       9.849   6.630   0.959  1.00 35.41    -0.083 Cl
HETATM   14  C3    D T9000       9.856   4.634   2.763  1.00 34.67     0.013 A 
HETATM   15  C2    D T9000       9.307   3.742   3.716  1.00 35.13     0.031 A 
HETATM   16  C12   D T9000       7.926   3.797   4.040  1.00 37.02     0.150 A 
HETATM   17  F     D T9000       7.447   2.936   4.944  1.00 37.34    -0.203 F 
HETATM   18  C18   D T9000       7.064   4.762   3.402  1.00 36.91     0.084 A 
HETATM   19 CL2    D T9000       5.377   4.746   3.876  1.00 49.38    -0.080 Cl
ENDBRANCH   9  11
ENDBRANCH   8   9
ENDBRANCH   1   8
BRANCH   7  20
HETATM   20  C16   D T9000       4.909   3.893  -3.151  1.00 32.36     0.041 A 
HETATM   21  C6    D T9000       5.203   2.604  -2.520  1.00 35.90     0.122 A 
HETATM   22  N24   D T9000       4.881   1.655  -3.320  1.00 36.91    -0.168 NA
HETATM   23  N26   D T9000       4.407   2.143  -4.410  1.00 38.66    -0.252 N 
HETATM   24  C7    D T9000       4.385   3.559  -4.401  1.00 35.41     0.097 A 
BRANCH  23  25
HETATM   25  C20   D T9000       3.952   1.259  -5.513  1.00 43.14     0.110 C 
HETATM   26  C8    D T9000       4.199  -0.224  -5.155  1.00 45.28     0.063 C 
HETATM   27  C10   D T9000       3.714  -1.126  -6.316  1.00 46.38     0.292 C 
HETATM   28  N25   D T9000       4.330  -0.756  -7.622  1.00 47.91     0.339 N 
HETATM   29  C11   D T9000       4.145   0.686  -7.963  1.00 46.73     0.292 C 
HETATM   30  C9    D T9000       4.648   1.628  -6.844  1.00 45.30     0.063 C 
ENDBRANCH  23  25
ENDBRANCH   7  20
TORSDOF 5
ENDMDL
MODEL 2
REMARK VINA RESULT:      -9.9      1.057      2.001
REMARK  5 active torsions:
REMARK  status: ('A' for Active; 'I' for Inactive)
REMARK    1  A    between atoms: C17_7  and  C21_10 
REMARK    2  A    between atoms: C21_10  and  O27_12 
REMARK    3  A    between atoms: O27_12  and  C15_13 
REMARK    4  A    between atoms: C14_19  and  C16_20 
REMARK    5  A    between atoms: N26_23  and  C20_25 
ROOT
HETATM    1  C15   D T9000       5.807   6.918  -0.813  1.00 27.55     0.125 A 
HETATM    2  C4    D T9000       5.625   5.601  -1.358  1.00 28.27     0.029 A 
HETATM    3  C19   D T9000       5.334   8.003  -1.628  1.00 26.72     0.173 A 
HETATM    4  N22   D T9000       5.476   9.324  -1.153  1.00 25.80    -0.078 NA
HETATM    5  N23   D T9000       4.747   7.848  -2.848  1.00 24.81    -0.228 NA
HETATM    6  C5    D T9000       4.590   6.577  -3.339  1.00 28.27     0.100 A 
HETATM    7  C14   D T9000       5.013   5.400  -2.639  1.00 30.75     0.024 A 
ENDROOT
BRANCH   1   8
HETATM    8  O27   D T9000       6.376   7.208   0.439  1.00 29.26    -0.326 OA
BRANCH   8   9
HETATM    9  C21   D T9000       6.114   6.495   1.702  1.00 32.38     0.145 C 
HETATM   10  C1    D T9000       5.669   7.579   2.700  1.00 32.72     0.038 C 
BRANCH   9  11
HETATM   11  C17   D T9000       7.335   5.672   2.272  1.00 34.58     0.029 A 
HETATM   12  C13   D T9000       7.117   4.707   3.345  1.00 34.39     0.057 A 
HETATM   13 CL     D T9000       5.560   4.396   4.050  1.00 35.41    -0.083 Cl
HETATM   14  C3    D T9000       8.209   3.958   3.873  1.00 34.67     0.013 A 
HETATM   15  C2    D T9000       9.524   4.130   3.377  1.00 35.13     0.031 A 
HETATM   16  C12   D T9000       9.782   5.058   2.333  1.00 37.02     0.150 A 
HETATM   17  F     D T9000      11.038   5.191   1.893  1.00 37.34    -0.203 F 
HETATM   18  C18   D T9000       8.709   5.837   1.766  1.00 36.91     0.084 A 
HETATM   19 CL2    D T9000       9.137   6.951   0.482  1.00 49.38    -0.080 Cl
ENDBRANCH   9  11
ENDBRANCH   8   9
ENDBRANCH   1   8
BRANCH   7  20
HETATM   20  C16   D T9000       4.833   3.991  -3.190  1.00 32.36     0.041 A 
HETATM   21  C6    D T9000       5.202   2.734  -2.532  1.00 35.90     0.122 A 
HETATM   22  N24   D T9000       4.899   1.750  -3.296  1.00 36.91    -0.168 NA
HETATM   23  N26   D T9000       4.373   2.186  -4.384  1.00 38.66    -0.252 N 
HETATM   24  C7    D T9000       4.288   3.599  -4.413  1.00 35.41     0.097 A 
BRANCH  23  25
HETATM   25  C20   D T9000       3.926   1.251  -5.449  1.00 43.14     0.110 C 
HETATM   26  C8    D T9000       4.305  -0.203  -5.086  1.00 45.28     0.063 C 
HETATM   27  C10   D T9000       3.825  -1.158  -6.207  1.00 46.38     0.292 C 
HETATM   28  N25   D T9000       4.339  -0.765  -7.549  1.00 47.91     0.339 N 
HETATM   29  C11   D T9000       4.027   0.653  -7.898  1.00 46.73     0.292 C 
HETATM   30  C9    D T9000       4.517   1.648  -6.822  1.00 45.30     0.063 C 
ENDBRANCH  23  25
ENDBRANCH   7  20
TORSDOF 5
ENDMDL
MODEL 3
REMARK VINA RESULT:      -9.7      4.598      9.388
REMARK  5 active torsions:
REMARK  status: ('A' for Active; 'I' for Inactive)
REMARK    1  A    between atoms: C17_7  and  C21_10 
REMARK    2  A    between atoms: C21_10  and  O27_12 
REMARK    3  A    between atoms: O27_12  and  C15_13 
REMARK    4  A    between atoms: C14_19  and  C16_20 
REMARK    5  A    between atoms: N26_23  and  C20_25 
ROOT
HETATM    1  C15   D T9000       5.024   4.312  -3.909  1.00 27.55     0.125 A 
HETATM    2  C4    D T9000       5.540   4.520  -2.584  1.00 28.27     0.029 A 
HETATM    3  C19   D T9000       3.788   4.980  -4.211  1.00 26.72     0.173 A 
HETATM    4  N22   D T9000       3.226   4.825  -5.496  1.00 25.80    -0.078 NA
HETATM    5  N23   D T9000       3.106   5.769  -3.333  1.00 24.81    -0.228 NA
HETATM    6  C5    D T9000       3.626   5.945  -2.076  1.00 28.27     0.100 A 
HETATM    7  C14   D T9000       4.849   5.341  -1.634  1.00 30.75     0.024 A 
ENDROOT
BRANCH   1   8
HETATM    8  O27   D T9000       5.641   3.544  -4.911  1.00 29.26    -0.326 OA
BRANCH   8   9
HETATM    9  C21   D T9000       5.794   2.077  -4.916  1.00 32.38     0.145 C 
HETATM   10  C1    D T9000       7.303   1.823  -5.083  1.00 32.72     0.038 C 
BRANCH   9  11
HETATM   11  C17   D T9000       4.968   1.322  -6.030  1.00 34.58     0.029 A 
HETATM   12  C13   D T9000       4.055   0.250  -5.648  1.00 34.39     0.057 A 
HETATM   13 CL     D T9000       3.808  -0.258  -4.005  1.00 35.41    -0.083 Cl
HETATM   14  C3    D T9000       3.304  -0.445  -6.642  1.00 34.67     0.013 A 
HETATM   15  C2    D T9000       3.426  -0.118  -8.014  1.00 35.13     0.031 A 
HETATM   16  C12   D T9000       4.303   0.918  -8.431  1.00 37.02     0.150 A 
HETATM   17  F     D T9000       4.390   1.195  -9.736  1.00 37.34    -0.203 F 
HETATM   18  C18   D T9000       5.082   1.650  -7.462  1.00 36.91     0.084 A 
HETATM   19 CL2    D T9000       6.131   2.909  -8.083  1.00 49.38    -0.080 Cl
ENDBRANCH   9  11
ENDBRANCH   8   9
ENDBRANCH   1   8
BRANCH   7  20
HETATM   20  C16   D T9000       5.422   5.543  -0.236  1.00 32.36     0.041 A 
HETATM   21  C6    D T9000       5.126   6.641   0.687  1.00 35.90     0.122 A 
HETATM   22  N24   D T9000       5.790   6.477   1.771  1.00 36.91    -0.168 NA
HETATM   23  N26   D T9000       6.497   5.406   1.693  1.00 38.66    -0.252 N 
HETATM   24  C7    D T9000       6.332   4.741   0.453  1.00 35.41     0.097 A 
BRANCH  23  25
HETATM   25  C20   D T9000       7.366   4.976   2.818  1.00 43.14     0.110 C 
HETATM   26  C8    D T9000       8.773   4.598   2.301  1.00 45.28     0.063 C 
HETATM   27  C10   D T9000       9.662   4.158   3.491  1.00 46.38     0.292 C 
HETATM   28  N25   D T9000       9.044   3.060   4.288  1.00 47.91     0.339 N 
HETATM   29  C11   D T9000       7.664   3.387   4.754  1.00 46.73     0.292 C 
HETATM   30  C9    D T9000       6.730   3.800   3.594  1.00 45.30     0.063 C 
ENDBRANCH  23  25
ENDBRANCH   7  20
TORSDOF 5
ENDMDL
MODEL 4
REMARK VINA RESULT:      -9.4      4.314      8.906
REMARK  5 active torsions:
REMARK  status: ('A' for Active; 'I' for Inactive)
REMARK    1  A    between atoms: C17_7  and  C21_10 
REMARK    2  A    between atoms: C21_10  and  O27_12 
REMARK    3  A    between atoms: O27_12  and  C15_13 
REMARK    4  A    between atoms: C14_19  and  C16_20 
REMARK    5  A    between atoms: N26_23  and  C20_25 
ROOT
HETATM    1  C15   D T9000       5.022   4.485  -3.484  1.00 27.55     0.125 A 
HETATM    2  C4    D T9000       5.517   4.576  -2.138  1.00 28.27     0.029 A 
HETATM    3  C19   D T9000       3.967   5.398  -3.826  1.00 26.72     0.173 A 
HETATM    4  N22   D T9000       3.437   5.368  -5.133  1.00 25.80    -0.078 NA
HETATM    5  N23   D T9000       3.431   6.309  -2.966  1.00 24.81    -0.228 NA
HETATM    6  C5    D T9000       3.925   6.368  -1.688  1.00 28.27     0.100 A 
HETATM    7  C14   D T9000       4.976   5.521  -1.206  1.00 30.75     0.024 A 
ENDROOT
BRANCH   1   8
HETATM    8  O27   D T9000       5.505   3.607  -4.471  1.00 29.26    -0.326 OA
BRANCH   8   9
HETATM    9  C21   D T9000       5.957   2.220  -4.258  1.00 32.38     0.145 C 
HETATM   10  C1    D T9000       7.471   2.318  -4.000  1.00 32.72     0.038 C 
BRANCH   9  11
HETATM   11  C17   D T9000       5.650   1.226  -5.446  1.00 34.58     0.029 A 
HETATM   12  C13   D T9000       6.242   1.468  -6.758  1.00 34.39     0.057 A 
HETATM   13 CL     D T9000       7.291   2.808  -7.104  1.00 35.41    -0.083 Cl
HETATM   14  C3    D T9000       5.972   0.583  -7.843  1.00 34.67     0.013 A 
HETATM   15  C2    D T9000       5.128  -0.543  -7.679  1.00 35.13     0.031 A 
HETATM   16  C12   D T9000       4.532  -0.816  -6.420  1.00 37.02     0.150 A 
HETATM   17  F     D T9000       3.741  -1.888  -6.307  1.00 37.34    -0.203 F 
HETATM   18  C18   D T9000       4.776   0.051  -5.293  1.00 36.91     0.084 A 
HETATM   19 CL2    D T9000       3.992  -0.379  -3.785  1.00 49.38    -0.080 Cl
ENDBRANCH   9  11
ENDBRANCH   8   9
ENDBRANCH   1   8
BRANCH   7  20
HETATM   20  C16   D T9000       5.522   5.593   0.215  1.00 32.36     0.041 A 
HETATM   21  C6    D T9000       5.125   6.536   1.264  1.00 35.90     0.122 A 
HETATM   22  N24   D T9000       5.797   6.295   2.329  1.00 36.91    -0.168 NA
HETATM   23  N26   D T9000       6.596   5.308   2.129  1.00 38.66    -0.252 N 
HETATM   24  C7    D T9000       6.496   4.793   0.813  1.00 35.41     0.097 A 
BRANCH  23  25
HETATM   25  C20   D T9000       7.494   4.817   3.205  1.00 43.14     0.110 C 
HETATM   26  C8    D T9000       8.901   4.517   2.641  1.00 45.28     0.063 C 
HETATM   27  C10   D T9000       9.820   4.012   3.780  1.00 46.38     0.292 C 
HETATM   28  N25   D T9000       9.244   2.840   4.498  1.00 47.91     0.339 N 
HETATM   29  C11   D T9000       7.864   3.092   5.009  1.00 46.73     0.292 C 
HETATM   30  C9    D T9000       6.901   3.567   3.897  1.00 45.30     0.063 C 
ENDBRANCH  23  25
ENDBRANCH   7  20
TORSDOF 5
ENDMDL
MODEL 5
REMARK VINA RESULT:      -9.1      2.533      3.679
REMARK  5 active torsions:
REMARK  status: ('A' for Active; 'I' for Inactive)
REMARK    1  A    between atoms: C17_7  and  C21_10 
REMARK    2  A    between atoms: C21_10  and  O27_12 
REMARK    3  A    between atoms: O27_12  and  C15_13 
REMARK    4  A    between atoms: C14_19  and  C16_20 
REMARK    5  A    between atoms: N26_23  and  C20_25 
ROOT
HETATM    1  C15   D T9000       5.083   5.207  -1.525  1.00 27.55     0.125 A 
HETATM    2  C4    D T9000       5.291   4.209  -2.538  1.00 28.27     0.029 A 
HETATM    3  C19   D T9000       4.417   6.405  -1.955  1.00 26.72     0.173 A 
HETATM    4  N22   D T9000       4.173   7.426  -1.012  1.00 25.80    -0.078 NA
HETATM    5  N23   D T9000       3.992   6.632  -3.230  1.00 24.81    -0.228 NA
HETATM    6  C5    D T9000       4.209   5.660  -4.173  1.00 28.27     0.100 A 
HETATM    7  C14   D T9000       4.860   4.415  -3.889  1.00 30.75     0.024 A 
ENDROOT
BRANCH   1   8
HETATM    8  O27   D T9000       5.451   5.084  -0.174  1.00 29.26    -0.326 OA
BRANCH   8   9
HETATM    9  C21   D T9000       6.824   4.962   0.348  1.00 32.38     0.145 C 
HETATM   10  C1    D T9000       6.727   3.983   1.532  1.00 32.72     0.038 C 
BRANCH   9  11
HETATM   11  C17   D T9000       7.494   6.321   0.793  1.00 34.58     0.029 A 
HETATM   12  C13   D T9000       6.771   7.223   1.683  1.00 34.39     0.057 A 
HETATM   13 CL     D T9000       5.183   6.888   2.304  1.00 35.41    -0.083 Cl
HETATM   14  C3    D T9000       7.359   8.456   2.092  1.00 34.67     0.013 A 
HETATM   15  C2    D T9000       8.649   8.836   1.648  1.00 35.13     0.031 A 
HETATM   16  C12   D T9000       9.389   7.989   0.781  1.00 37.02     0.150 A 
HETATM   17  F     D T9000      10.602   8.385   0.383  1.00 37.34    -0.203 F 
HETATM   18  C18   D T9000       8.835   6.732   0.341  1.00 36.91     0.084 A 
HETATM   19 CL2    D T9000       9.832   5.762  -0.726  1.00 49.38    -0.080 Cl
ENDBRANCH   9  11
ENDBRANCH   8   9
ENDBRANCH   1   8
BRANCH   7  20
HETATM   20  C16   D T9000       5.096   3.337  -4.940  1.00 32.36     0.041 A 
HETATM   21  C6    D T9000       5.445   1.934  -4.701  1.00 35.90     0.122 A 
HETATM   22  N24   D T9000       5.561   1.327  -5.825  1.00 36.91    -0.168 NA
HETATM   23  N26   D T9000       5.334   2.145  -6.789  1.00 38.66    -0.252 N 
HETATM   24  C7    D T9000       5.030   3.449  -6.330  1.00 35.41     0.097 A 
BRANCH  23  25
HETATM   25  C20   D T9000       5.400   1.700  -8.205  1.00 43.14     0.110 C 
HETATM   26  C8    D T9000       6.630   0.791  -8.430  1.00 45.28     0.063 C 
HETATM   27  C10   D T9000       6.676   0.336  -9.909  1.00 46.38     0.292 C 
HETATM   28  N25   D T9000       6.647   1.484 -10.859  1.00 47.91     0.339 N 
HETATM   29  C11   D T9000       5.492   2.401 -10.627  1.00 46.73     0.292 C 
HETATM   30  C9    D T9000       5.425   2.909  -9.168  1.00 45.30     0.063 C 
ENDBRANCH  23  25
ENDBRANCH   7  20
TORSDOF 5
ENDMDL
MODEL 6
REMARK VINA RESULT:      -8.9      2.709      3.250
REMARK  5 active torsions:
REMARK  status: ('A' for Active; 'I' for Inactive)
REMARK    1  A    between atoms: C17_7  and  C21_10 
REMARK    2  A    between atoms: C21_10  and  O27_12 
REMARK    3  A    between atoms: O27_12  and  C15_13 
REMARK    4  A    between atoms: C14_19  and  C16_20 
REMARK    5  A    between atoms: N26_23  and  C20_25 
ROOT
HETATM    1  C15   D T9000       5.157   5.845  -2.028  1.00 27.55     0.125 A 
HETATM    2  C4    D T9000       5.091   4.687  -2.876  1.00 28.27     0.029 A 
HETATM    3  C19   D T9000       3.929   6.573  -1.866  1.00 26.72     0.173 A 
HETATM    4  N22   D T9000       3.919   7.718  -1.043  1.00 25.80    -0.078 NA
HETATM    5  N23   D T9000       2.750   6.232  -2.460  1.00 24.81    -0.228 NA
HETATM    6  C5    D T9000       2.722   5.122  -3.265  1.00 28.27     0.100 A 
HETATM    7  C14   D T9000       3.869   4.299  -3.517  1.00 30.75     0.024 A 
ENDROOT
BRANCH   1   8
HETATM    8  O27   D T9000       6.302   6.287  -1.342  1.00 29.26    -0.326 OA
BRANCH   8   9
HETATM    9  C21   D T9000       7.335   5.432  -0.730  1.00 32.38     0.145 C 
HETATM   10  C1    D T9000       6.617   4.662   0.392  1.00 32.72     0.038 C 
BRANCH   9  11
HETATM   11  C17   D T9000       8.594   6.203  -0.168  1.00 34.58     0.029 A 
HETATM   12  C13   D T9000       9.934   5.729  -0.494  1.00 34.39     0.057 A 
HETATM   13 CL     D T9000      10.243   4.339  -1.489  1.00 35.41    -0.083 Cl
HETATM   14  C3    D T9000      11.082   6.411   0.009  1.00 34.67     0.013 A 
HETATM   15  C2    D T9000      10.952   7.556   0.832  1.00 35.13     0.031 A 
HETATM   16  C12   D T9000       9.666   8.052   1.175  1.00 37.02     0.150 A 
HETATM   17  F     D T9000       9.587   9.135   1.956  1.00 37.34    -0.203 F 
HETATM   18  C18   D T9000       8.477   7.396   0.689  1.00 36.91     0.084 A 
HETATM   19 CL2    D T9000       6.942   8.092   1.171  1.00 49.38    -0.080 Cl
ENDBRANCH   9  11
ENDBRANCH   8   9
ENDBRANCH   1   8
BRANCH   7  20
HETATM   20  C16   D T9000       3.831   3.065  -4.411  1.00 32.36     0.041 A 
HETATM   21  C6    D T9000       3.187   1.783  -4.115  1.00 35.90     0.122 A 
HETATM   22  N24   D T9000       3.360   0.983  -5.102  1.00 36.91    -0.168 NA
HETATM   23  N26   D T9000       4.040   1.565  -6.024  1.00 38.66    -0.252 N 
HETATM   24  C7    D T9000       4.388   2.893  -5.679  1.00 35.41     0.097 A 
BRANCH  23  25
HETATM   25  C20   D T9000       4.383   0.860  -7.286  1.00 43.14     0.110 C 
HETATM   26  C8    D T9000       4.934   1.857  -8.330  1.00 45.28     0.063 C 
HETATM   27  C10   D T9000       5.290   1.101  -9.633  1.00 46.38     0.292 C 
HETATM   28  N25   D T9000       4.142   0.311 -10.164  1.00 47.91     0.339 N 
HETATM   29  C11   D T9000       3.563  -0.623  -9.154  1.00 46.73     0.292 C 
HETATM   30  C9    D T9000       3.161   0.095  -7.846  1.00 45.30     0.063 C 
ENDBRANCH  23  25
ENDBRANCH   7  20
TORSDOF 5
ENDMDL
MODEL 7
REMARK VINA RESULT:      -8.9      4.921      9.677
REMARK  5 active torsions:
REMARK  status: ('A' for Active; 'I' for Inactive)
REMARK    1  A    between atoms: C17_7  and  C21_10 
REMARK    2  A    between atoms: C21_10  and  O27_12 
REMARK    3  A    between atoms: O27_12  and  C15_13 
REMARK    4  A    between atoms: C14_19  and  C16_20 
REMARK    5  A    between atoms: N26_23  and  C20_25 
ROOT
HETATM    1  C15   D T9000       4.320   4.718  -4.367  1.00 27.55     0.125 A 
HETATM    2  C4    D T9000       5.152   5.689  -3.711  1.00 28.27     0.029 A 
HETATM    3  C19   D T9000       2.961   4.647  -3.907  1.00 26.72     0.173 A 
HETATM    4  N22   D T9000       2.085   3.720  -4.511  1.00 25.80    -0.078 NA
HETATM    5  N23   D T9000       2.444   5.425  -2.914  1.00 24.81    -0.228 NA
HETATM    6  C5    D T9000       3.265   6.340  -2.308  1.00 28.27     0.100 A 
HETATM    7  C14   D T9000       4.643   6.522  -2.662  1.00 30.75     0.024 A 
ENDROOT
BRANCH   1   8
HETATM    8  O27   D T9000       4.726   3.876  -5.416  1.00 29.26    -0.326 OA
BRANCH   8   9
HETATM    9  C21   D T9000       4.722   2.401  -5.401  1.00 32.38     0.145 C 
HETATM   10  C1    D T9000       5.695   2.001  -4.278  1.00 32.72     0.038 C 
BRANCH   9  11
HETATM   11  C17   D T9000       5.126   1.718  -6.766  1.00 34.58     0.029 A 
HETATM   12  C13   D T9000       6.389   2.073  -7.405  1.00 34.39     0.057 A 
HETATM   13 CL     D T9000       7.506   3.226  -6.742  1.00 35.41    -0.083 Cl
HETATM   14  C3    D T9000       6.767   1.469  -8.640  1.00 34.67     0.013 A 
HETATM   15  C2    D T9000       5.933   0.516  -9.275  1.00 35.13     0.031 A 
HETATM   16  C12   D T9000       4.695   0.140  -8.689  1.00 37.02     0.150 A 
HETATM   17  F     D T9000       3.937  -0.762  -9.321  1.00 37.34    -0.203 F 
HETATM   18  C18   D T9000       4.271   0.725  -7.440  1.00 36.91     0.084 A 
HETATM   19 CL2    D T9000       2.728   0.189  -6.804  1.00 49.38    -0.080 Cl
ENDBRANCH   9  11
ENDBRANCH   8   9
ENDBRANCH   1   8
BRANCH   7  20
HETATM   20  C16   D T9000       5.550   7.543  -1.986  1.00 32.36     0.041 A 
HETATM   21  C6    D T9000       5.166   8.862  -1.475  1.00 35.90     0.122 A 
HETATM   22  N24   D T9000       6.194   9.438  -0.970  1.00 36.91    -0.168 NA
HETATM   23  N26   D T9000       7.221   8.674  -1.077  1.00 38.66    -0.252 N 
HETATM   24  C7    D T9000       6.915   7.445  -1.710  1.00 35.41     0.097 A 
BRANCH  23  25
HETATM   25  C20   D T9000       8.551   9.099  -0.568  1.00 43.14     0.110 C 
HETATM   26  C8    D T9000       9.678   8.319  -1.282  1.00 45.28     0.063 C 
HETATM   27  C10   D T9000      11.052   8.781  -0.740  1.00 46.38     0.292 C 
HETATM   28  N25   D T9000      11.147   8.669   0.743  1.00 47.91     0.339 N 
HETATM   29  C11   D T9000      10.038   9.375   1.451  1.00 46.73     0.292 C 
HETATM   30  C9    D T9000       8.642   8.920   0.965  1.00 45.30     0.063 C 
ENDBRANCH  23  25
ENDBRANCH   7  20
TORSDOF 5
ENDMDL
MODEL 8
REMARK VINA RESULT:      -8.9      5.124     10.413
REMARK  5 active torsions:
REMARK  status: ('A' for Active; 'I' for Inactive)
REMARK    1  A    between atoms: C17_7  and  C21_10 
REMARK    2  A    between atoms: C21_10  and  O27_12 
REMARK    3  A    between atoms: O27_12  and  C15_13 
REMARK    4  A    between atoms: C14_19  and  C16_20 
REMARK    5  A    between atoms: N26_23  and  C20_25 
ROOT
HETATM    1  C15   D T9000       4.353   2.638  -5.873  1.00 27.55     0.125 A 
HETATM    2  C4    D T9000       4.852   3.730  -5.083  1.00 28.27     0.029 A 
HETATM    3  C19   D T9000       3.405   1.777  -5.222  1.00 26.72     0.173 A 
HETATM    4  N22   D T9000       2.869   0.687  -5.940  1.00 25.80    -0.078 NA
HETATM    5  N23   D T9000       2.975   1.939  -3.939  1.00 24.81    -0.228 NA
HETATM    6  C5    D T9000       3.472   2.990  -3.212  1.00 28.27     0.100 A 
HETATM    7  C14   D T9000       4.423   3.930  -3.730  1.00 30.75     0.024 A 
ENDROOT
BRANCH   1   8
HETATM    8  O27   D T9000       4.698   2.377  -7.211  1.00 29.26    -0.326 OA
BRANCH   8   9
HETATM    9  C21   D T9000       5.415   1.190  -7.710  1.00 32.38     0.145 C 
HETATM   10  C1    D T9000       6.482   0.878  -6.645  1.00 32.72     0.038 C 
BRANCH   9  11
HETATM   11  C17   D T9000       6.074   1.356  -9.136  1.00 34.58     0.029 A 
HETATM   12  C13   D T9000       5.404   0.802 -10.307  1.00 34.39     0.057 A 
HETATM   13 CL     D T9000       3.889  -0.045 -10.234  1.00 35.41    -0.083 Cl
HETATM   14  C3    D T9000       5.986   0.939 -11.602  1.00 34.67     0.013 A 
HETATM   15  C2    D T9000       7.221   1.610 -11.783  1.00 35.13     0.031 A 
HETATM   16  C12   D T9000       7.907   2.164 -10.670  1.00 37.02     0.150 A 
HETATM   17  F     D T9000       9.070   2.788 -10.884  1.00 37.34    -0.203 F 
HETATM   18  C18   D T9000       7.356   2.050  -9.342  1.00 36.91     0.084 A 
HETATM   19 CL2    D T9000       8.284   2.771  -8.041  1.00 49.38    -0.080 Cl
ENDBRANCH   9  11
ENDBRANCH   8   9
ENDBRANCH   1   8
BRANCH   7  20
HETATM   20  C16   D T9000       4.970   5.098  -2.918  1.00 32.36     0.041 A 
HETATM   21  C6    D T9000       5.015   6.506  -3.321  1.00 35.90     0.122 A 
HETATM   22  N24   D T9000       5.541   7.201  -2.380  1.00 36.91    -0.168 NA
HETATM   23  N26   D T9000       5.856   6.437  -1.395  1.00 38.66    -0.252 N 
HETATM   24  C7    D T9000       5.533   5.080  -1.641  1.00 35.41     0.097 A 
BRANCH  23  25
HETATM   25  C20   D T9000       6.484   6.988  -0.167  1.00 43.14     0.110 C 
HETATM   26  C8    D T9000       7.621   6.061   0.321  1.00 45.28     0.063 C 
HETATM   27  C10   D T9000       8.264   6.657   1.597  1.00 46.38     0.292 C 
HETATM   28  N25   D T9000       7.262   6.925   2.668  1.00 47.91     0.339 N 
HETATM   29  C11   D T9000       6.129   7.778   2.202  1.00 46.73     0.292 C 
HETATM   30  C9    D T9000       5.434   7.204   0.946  1.00 45.30     0.063 C 
ENDBRANCH  23  25
ENDBRANCH   7  20
TORSDOF 5
ENDMDL
MODEL 9
REMARK VINA RESULT:      -8.8      5.210     10.288
REMARK  5 active torsions:
REMARK  status: ('A' for Active; 'I' for Inactive)
REMARK    1  A    between atoms: C17_7  and  C21_10 
REMARK    2  A    between atoms: C21_10  and  O27_12 
REMARK    3  A    between atoms: O27_12  and  C15_13 
REMARK    4  A    between atoms: C14_19  and  C16_20 
REMARK    5  A    between atoms: N26_23  and  C20_25 
ROOT
HETATM    1  C15   D T9000       4.606   2.321  -5.623  1.00 27.55     0.125 A 
HETATM    2  C4    D T9000       4.649   3.482  -4.777  1.00 28.27     0.029 A 
HETATM    3  C19   D T9000       4.527   1.056  -4.946  1.00 26.72     0.173 A 
HETATM    4  N22   D T9000       4.475  -0.126  -5.714  1.00 25.80    -0.078 NA
HETATM    5  N23   D T9000       4.495   0.911  -3.591  1.00 24.81    -0.228 NA
HETATM    6  C5    D T9000       4.539   2.039  -2.813  1.00 28.27     0.100 A 
HETATM    7  C14   D T9000       4.619   3.366  -3.349  1.00 30.75     0.024 A 
ENDROOT
BRANCH   1   8
HETATM    8  O27   D T9000       4.609   2.338  -7.029  1.00 29.26    -0.326 OA
BRANCH   8   9
HETATM    9  C21   D T9000       5.475   3.164  -7.889  1.00 32.38     0.145 C 
HETATM   10  C1    D T9000       4.544   4.215  -8.519  1.00 32.72     0.038 C 
BRANCH   9  11
HETATM   11  C17   D T9000       6.265   2.370  -9.003  1.00 34.58     0.029 A 
HETATM   12  C13   D T9000       7.686   2.094  -8.821  1.00 34.39     0.057 A 
HETATM   13 CL     D T9000       8.587   2.590  -7.421  1.00 35.41    -0.083 Cl
HETATM   14  C3    D T9000       8.415   1.382  -9.819  1.00 34.67     0.013 A 
HETATM   15  C2    D T9000       7.785   0.929 -11.004  1.00 35.13     0.031 A 
HETATM   16  C12   D T9000       6.404   1.177 -11.222  1.00 37.02     0.150 A 
HETATM   17  F     D T9000       5.847   0.734 -12.355  1.00 37.34    -0.203 F 
HETATM   18  C18   D T9000       5.625   1.892 -10.241  1.00 36.91     0.084 A 
HETATM   19 CL2    D T9000       3.930   2.141 -10.609  1.00 49.38    -0.080 Cl
ENDBRANCH   9  11
ENDBRANCH   8   9
ENDBRANCH   1   8
BRANCH   7  20
HETATM   20  C16   D T9000       4.666   4.617  -2.479  1.00 32.36     0.041 A 
HETATM   21  C6    D T9000       3.735   5.748  -2.511  1.00 35.90     0.122 A 
HETATM   22  N24   D T9000       4.088   6.614  -1.634  1.00 36.91    -0.168 NA
HETATM   23  N26   D T9000       5.139   6.209  -1.017  1.00 38.66    -0.252 N 
HETATM   24  C7    D T9000       5.585   4.948  -1.482  1.00 35.41     0.097 A 
BRANCH  23  25
HETATM   25  C20   D T9000       5.762   7.025   0.057  1.00 43.14     0.110 C 
HETATM   26  C8    D T9000       7.291   6.802   0.090  1.00 45.28     0.063 C 
HETATM   27  C10   D T9000       7.918   7.665   1.212  1.00 46.38     0.292 C 
HETATM   28  N25   D T9000       7.288   7.418   2.540  1.00 47.91     0.339 N 
HETATM   29  C11   D T9000       5.804   7.581   2.518  1.00 46.73     0.292 C 
HETATM   30  C9    D T9000       5.129   6.710   1.433  1.00 45.30     0.063 C 
ENDBRANCH  23  25
ENDBRANCH   7  20
TORSDOF 5
ENDMDL
