MODEL 1
REMARK VINA RESULT:   -10.981      0.000      0.000
REMARK INTER + INTRA:         -13.028
REMARK INTER:                 -12.907
REMARK INTRA:                  -0.122
REMARK UNBOUND:                -0.122
REMARK  3 active torsions:
REMARK  status: ('A' for Active; 'I' for Inactive)
REMARK    1  A    between atoms: C4_6  and  C5_7 
REMARK    2  A    between atoms: C5_7  and  C6_8 
REMARK    3  A    between atoms: C5_7  and  C12_16 
ROOT
HETATM    1  C12   D T 441      -8.724  15.604 -21.362  1.00 19.85     0.021 A 
HETATM    2  C13   D T 441      -7.358  15.545 -20.962  1.00 19.83    -0.000 A 
HETATM    3  C14   D T 441      -6.373  14.948 -21.796  1.00 20.16     0.016 A 
HETATM    4  C15   D T 441      -9.081  15.085 -22.632  1.00 20.41    -0.000 A 
HETATM    5  C16   D T 441      -8.115  14.492 -23.461  1.00 20.73     0.017 A 
HETATM    6  C17   D T 441      -6.768  14.406 -23.052  1.00 21.09     0.062 A 
HETATM    7  N4    D T 441      -5.805  13.723 -23.862  1.00 20.91    -0.294 N 
HETATM    8  C18   D T 441      -6.187  13.154 -25.188  1.00 20.23     0.134 C 
HETATM    9  C19   D T 441      -4.472  13.584 -23.416  1.00 22.47     0.261 A 
HETATM   10  O1    D T 441      -3.656  12.955 -24.089  1.00 22.92    -0.267 OA
HETATM   11  C20   D T 441      -4.085  14.133 -22.189  1.00 22.04     0.061 A 
HETATM   12  C21   D T 441      -5.008  14.823 -21.374  1.00 20.64     0.006 A 
HETATM   13  C22   D T 441      -4.515  15.457 -20.202  1.00 21.65     0.001 A 
HETATM   14  C23   D T 441      -5.013  15.130 -18.920  1.00 20.99     0.011 A 
HETATM   15  C24   D T 441      -4.458  15.741 -17.774  1.00 22.35     0.058 A 
HETATM   16 CL2    D T 441      -5.057  15.321 -16.163  1.00 26.30    -0.082 Cl
HETATM   17  C25   D T 441      -3.413  16.676 -17.898  1.00 21.98     0.011 A 
HETATM   18  C26   D T 441      -2.916  17.004 -19.169  1.00 20.12     0.001 A 
HETATM   19  C27   D T 441      -3.463  16.399 -20.314  1.00 21.15     0.000 A 
ENDROOT
BRANCH   1  20
HETATM   20  C5    D T 441      -9.763  16.010 -20.443  1.00 20.67     0.342 C 
HETATM   21  N3    D T 441      -9.211  15.656 -19.119  1.00 22.80     0.629 N 
BRANCH  20  22
HETATM   22  C4    D T 441      -9.985  17.441 -20.378  1.00 19.37     0.100 A 
HETATM   23  N1    D T 441     -10.681  18.039 -19.431  1.00 19.33    -0.308 N 
HETATM   24  C1    D T 441     -11.307  17.423 -18.231  1.00 19.43     0.132 C 
HETATM   25  C2    D T 441     -10.744  19.330 -19.751  1.00 17.45     0.178 A 
HETATM   26  N2    D T 441     -10.067  19.489 -20.919  1.00 18.66    -0.223 NA
HETATM   27  C3    D T 441      -9.586  18.292 -21.315  1.00 16.78     0.116 A 
ENDBRANCH  20  22
BRANCH  20  28
HETATM   28  C6    D T 441     -10.983  15.273 -20.578  1.00 20.70     0.021 A 
HETATM   29  C7    D T 441     -12.012  15.754 -21.427  1.00 21.08    -0.001 A 
HETATM   30  C8    D T 441     -13.189  15.016 -21.615  1.00 21.56     0.011 A 
HETATM   31  C9    D T 441     -13.362  13.788 -20.963  1.00 22.96     0.058 A 
HETATM   32 CL1    D T 441     -14.845  12.847 -21.252  1.00 26.89    -0.082 Cl
HETATM   33  C10   D T 441     -12.355  13.292 -20.108  1.00 22.08     0.011 A 
HETATM   34  C11   D T 441     -11.167  14.033 -19.916  1.00 21.58    -0.001 A 
ENDBRANCH  20  28
ENDBRANCH   1  20
TORSDOF 3
ENDMDL
MODEL 2
REMARK VINA RESULT:   -10.818      1.351      2.062
REMARK INTER + INTRA:         -12.837
REMARK INTER:                 -12.798
REMARK INTRA:                  -0.039
REMARK UNBOUND:                -0.122
REMARK  3 active torsions:
REMARK  status: ('A' for Active; 'I' for Inactive)
REMARK    1  A    between atoms: C4_6  and  C5_7 
REMARK    2  A    between atoms: C5_7  and  C6_8 
REMARK    3  A    between atoms: C5_7  and  C12_16 
ROOT
HETATM    1  C12   D T 441      -9.168  14.441 -22.303  1.00 19.85     0.021 A 
HETATM    2  C13   D T 441      -7.768  14.601 -22.093  1.00 19.83    -0.000 A 
HETATM    3  C14   D T 441      -6.827  14.211 -23.086  1.00 20.16     0.016 A 
HETATM    4  C15   D T 441      -9.612  13.916 -23.542  1.00 20.41    -0.000 A 
HETATM    5  C16   D T 441      -8.690  13.526 -24.527  1.00 20.73     0.017 A 
HETATM    6  C17   D T 441      -7.302  13.656 -24.307  1.00 21.09     0.062 A 
HETATM    7  N4    D T 441      -6.365  13.177 -25.278  1.00 20.91    -0.294 N 
HETATM    8  C18   D T 441      -6.834  12.599 -26.573  1.00 20.23     0.134 C 
HETATM    9  C19   D T 441      -4.978  13.251 -25.024  1.00 22.47     0.261 A 
HETATM   10  O1    D T 441      -4.174  12.795 -25.837  1.00 22.92    -0.267 OA
HETATM   11  C20   D T 441      -4.516  13.813 -23.830  1.00 22.04     0.061 A 
HETATM   12  C21   D T 441      -5.414  14.306 -22.858  1.00 20.64     0.006 A 
HETATM   13  C22   D T 441      -4.870  14.971 -21.728  1.00 21.65     0.001 A 
HETATM   14  C23   D T 441      -5.120  14.518 -20.412  1.00 20.99     0.011 A 
HETATM   15  C24   D T 441      -4.515  15.174 -19.317  1.00 22.35     0.058 A 
HETATM   16 CL2    D T 441      -4.803  14.600 -17.668  1.00 26.30    -0.082 Cl
HETATM   17  C25   D T 441      -3.666  16.277 -19.524  1.00 21.98     0.011 A 
HETATM   18  C26   D T 441      -3.414  16.730 -20.828  1.00 20.12     0.001 A 
HETATM   19  C27   D T 441      -4.013  16.082 -21.924  1.00 21.15     0.000 A 
ENDROOT
BRANCH   1  20
HETATM   20  C5    D T 441     -10.117  14.631 -21.230  1.00 20.67     0.342 C 
HETATM   21  N3    D T 441      -9.504  13.914 -20.094  1.00 22.80     0.629 N 
BRANCH  20  22
HETATM   22  C4    D T 441     -10.245  16.001 -20.773  1.00 19.37     0.100 A 
HETATM   23  N1    D T 441     -10.311  17.045 -21.577  1.00 19.33    -0.308 N 
HETATM   24  C1    D T 441     -10.341  17.053 -23.063  1.00 19.43     0.132 C 
HETATM   25  C2    D T 441     -10.330  18.129 -20.803  1.00 17.45     0.178 A 
HETATM   26  N2    D T 441     -10.273  17.706 -19.513  1.00 18.66    -0.223 NA
HETATM   27  C3    D T 441     -10.219  16.357 -19.495  1.00 16.78     0.116 A 
ENDBRANCH  20  22
BRANCH  20  28
HETATM   28  C6    D T 441     -11.388  14.010 -21.457  1.00 20.70     0.021 A 
HETATM   29  C7    D T 441     -11.621  12.686 -21.006  1.00 21.08    -0.001 A 
HETATM   30  C8    D T 441     -12.876  12.084 -21.168  1.00 21.56     0.011 A 
HETATM   31  C9    D T 441     -13.921  12.789 -21.781  1.00 22.96     0.058 A 
HETATM   32 CL1    D T 441     -15.519  12.022 -21.936  1.00 26.89    -0.082 Cl
HETATM   33  C10   D T 441     -13.711  14.105 -22.244  1.00 22.08     0.011 A 
HETATM   34  C11   D T 441     -12.447  14.716 -22.082  1.00 21.58    -0.001 A 
ENDBRANCH  20  28
ENDBRANCH   1  20
TORSDOF 3
ENDMDL
MODEL 3
REMARK VINA RESULT:    -9.714      3.075      5.834
REMARK INTER + INTRA:         -11.539
REMARK INTER:                 -11.460
REMARK INTRA:                  -0.079
REMARK UNBOUND:                -0.122
REMARK  3 active torsions:
REMARK  status: ('A' for Active; 'I' for Inactive)
REMARK    1  A    between atoms: C4_6  and  C5_7 
REMARK    2  A    between atoms: C5_7  and  C6_8 
REMARK    3  A    between atoms: C5_7  and  C12_16 
ROOT
HETATM    1  C12   D T 441      -5.193  13.949 -21.525  1.00 19.85     0.021 A 
HETATM    2  C13   D T 441      -6.197  13.846 -22.531  1.00 19.83    -0.000 A 
HETATM    3  C14   D T 441      -5.879  13.399 -23.843  1.00 20.16     0.016 A 
HETATM    4  C15   D T 441      -3.869  13.561 -21.847  1.00 20.41    -0.000 A 
HETATM    5  C16   D T 441      -3.546  13.120 -23.141  1.00 20.73     0.017 A 
HETATM    6  C17   D T 441      -4.533  13.047 -24.146  1.00 21.09     0.062 A 
HETATM    7  N4    D T 441      -4.181  12.681 -25.484  1.00 20.91    -0.294 N 
HETATM    8  C18   D T 441      -2.781  12.297 -25.829  1.00 20.23     0.134 C 
HETATM    9  C19   D T 441      -5.163  12.673 -26.500  1.00 22.47     0.261 A 
HETATM   10  O1    D T 441      -4.852  12.405 -27.661  1.00 22.92    -0.267 OA
HETATM   11  C20   D T 441      -6.487  13.002 -26.194  1.00 22.04     0.061 A 
HETATM   12  C21   D T 441      -6.868  13.355 -24.881  1.00 20.64     0.006 A 
HETATM   13  C22   D T 441      -8.249  13.559 -24.622  1.00 21.65     0.001 A 
HETATM   14  C23   D T 441      -8.734  14.788 -24.118  1.00 20.99     0.011 A 
HETATM   15  C24   D T 441     -10.121  14.970 -23.927  1.00 22.35     0.058 A 
HETATM   16 CL2    D T 441     -10.740  16.513 -23.320  1.00 26.30    -0.082 Cl
HETATM   17  C25   D T 441     -11.027  13.937 -24.232  1.00 21.98     0.011 A 
HETATM   18  C26   D T 441     -10.551  12.715 -24.732  1.00 20.12     0.001 A 
HETATM   19  C27   D T 441      -9.171  12.526 -24.925  1.00 21.15     0.000 A 
ENDROOT
BRANCH   1  20
HETATM   20  C5    D T 441      -5.456  14.599 -20.262  1.00 20.67     0.342 C 
HETATM   21  N3    D T 441      -5.308  13.510 -19.275  1.00 22.80     0.629 N 
BRANCH  20  22
HETATM   22  C4    D T 441      -4.466  15.584 -19.872  1.00 19.37     0.100 A 
HETATM   23  N1    D T 441      -4.272  15.987 -18.632  1.00 19.33    -0.308 N 
HETATM   24  C1    D T 441      -4.939  15.495 -17.397  1.00 19.43     0.132 C 
HETATM   25  C2    D T 441      -3.357  16.953 -18.676  1.00 17.45     0.178 A 
HETATM   26  N2    D T 441      -3.009  17.120 -19.979  1.00 18.66    -0.223 NA
HETATM   27  C3    D T 441      -3.712  16.252 -20.736  1.00 16.78     0.116 A 
ENDBRANCH  20  22
BRANCH  20  28
HETATM   28  C6    D T 441      -6.796  15.086 -20.123  1.00 20.70     0.021 A 
HETATM   29  C7    D T 441      -7.162  16.330 -20.695  1.00 21.08    -0.001 A 
HETATM   30  C8    D T 441      -8.482  16.794 -20.618  1.00 21.56     0.011 A 
HETATM   31  C9    D T 441      -9.461  16.027 -19.972  1.00 22.96     0.058 A 
HETATM   32 CL1    D T 441     -11.141  16.614 -19.925  1.00 26.89    -0.082 Cl
HETATM   33  C10   D T 441      -9.120  14.788 -19.389  1.00 22.08     0.011 A 
HETATM   34  C11   D T 441      -7.790  14.317 -19.464  1.00 21.58    -0.001 A 
ENDBRANCH  20  28
ENDBRANCH   1  20
TORSDOF 3
ENDMDL
MODEL 4
REMARK VINA RESULT:    -8.361      2.973      5.023
REMARK INTER + INTRA:          -9.949
REMARK INTER:                 -10.746
REMARK INTRA:                   0.797
REMARK UNBOUND:                -0.122
REMARK  3 active torsions:
REMARK  status: ('A' for Active; 'I' for Inactive)
REMARK    1  A    between atoms: C4_6  and  C5_7 
REMARK    2  A    between atoms: C5_7  and  C6_8 
REMARK    3  A    between atoms: C5_7  and  C12_16 
ROOT
HETATM    1  C12   D T 441      -8.605  14.459 -21.161  1.00 19.85     0.021 A 
HETATM    2  C13   D T 441      -7.271  14.169 -21.570  1.00 19.83    -0.000 A 
HETATM    3  C14   D T 441      -6.171  14.395 -20.698  1.00 20.16     0.016 A 
HETATM    4  C15   D T 441      -8.821  14.945 -19.848  1.00 20.41    -0.000 A 
HETATM    5  C16   D T 441      -7.740  15.173 -18.981  1.00 20.73     0.017 A 
HETATM    6  C17   D T 441      -6.416  14.915 -19.396  1.00 21.09     0.062 A 
HETATM    7  N4    D T 441      -5.313  15.231 -18.540  1.00 20.91    -0.294 N 
HETATM    8  C18   D T 441      -5.540  15.769 -17.166  1.00 20.23     0.134 C 
HETATM    9  C19   D T 441      -3.988  15.031 -18.986  1.00 22.47     0.261 A 
HETATM   10  O1    D T 441      -3.038  15.348 -18.270  1.00 22.92    -0.267 OA
HETATM   11  C20   D T 441      -3.752  14.503 -20.259  1.00 22.04     0.061 A 
HETATM   12  C21   D T 441      -4.819  14.170 -21.122  1.00 20.64     0.006 A 
HETATM   13  C22   D T 441      -4.506  13.526 -22.348  1.00 21.65     0.001 A 
HETATM   14  C23   D T 441      -4.875  14.088 -23.593  1.00 20.99     0.011 A 
HETATM   15  C24   D T 441      -4.496  13.446 -24.793  1.00 22.35     0.058 A 
HETATM   16 CL2    D T 441      -4.932  14.152 -26.355  1.00 26.30    -0.082 Cl
HETATM   17  C25   D T 441      -3.754  12.250 -24.760  1.00 21.98     0.011 A 
HETATM   18  C26   D T 441      -3.386  11.690 -23.528  1.00 20.12     0.001 A 
HETATM   19  C27   D T 441      -3.759  12.323 -22.329  1.00 21.15     0.000 A 
ENDROOT
BRANCH   1  20
HETATM   20  C5    D T 441      -9.703  14.438 -22.101  1.00 20.67     0.342 C 
HETATM   21  N3    D T 441      -9.896  15.863 -22.440  1.00 22.80     0.629 N 
BRANCH  20  22
HETATM   22  C4    D T 441      -9.402  13.797 -23.366  1.00 19.37     0.100 A 
HETATM   23  N1    D T 441     -10.178  13.860 -24.430  1.00 19.33    -0.308 N 
HETATM   24  C1    D T 441     -11.443  14.624 -24.594  1.00 19.43     0.132 C 
HETATM   25  C2    D T 441      -9.627  13.083 -25.360  1.00 17.45     0.178 A 
HETATM   26  N2    D T 441      -8.497  12.551 -24.823  1.00 18.66    -0.223 NA
HETATM   27  C3    D T 441      -8.355  13.004 -23.560  1.00 16.78     0.116 A 
ENDBRANCH  20  22
BRANCH  20  28
HETATM   28  C6    D T 441     -10.942  13.988 -21.542  1.00 20.70     0.021 A 
HETATM   29  C7    D T 441     -11.936  14.929 -21.171  1.00 21.08    -0.001 A 
HETATM   30  C8    D T 441     -13.177  14.503 -20.677  1.00 21.56     0.011 A 
HETATM   31  C9    D T 441     -13.450  13.135 -20.544  1.00 22.96     0.058 A 
HETATM   32 CL1    D T 441     -15.048  12.617 -19.957  1.00 26.89    -0.082 Cl
HETATM   33  C10   D T 441     -12.475  12.181 -20.901  1.00 22.08     0.011 A 
HETATM   34  C11   D T 441     -11.223  12.605 -21.400  1.00 21.58    -0.001 A 
ENDBRANCH  20  28
ENDBRANCH   1  20
TORSDOF 3
ENDMDL
MODEL 5
REMARK VINA RESULT:    -8.110      3.224      5.187
REMARK INTER + INTRA:          -9.654
REMARK INTER:                  -9.942
REMARK INTRA:                   0.288
REMARK UNBOUND:                -0.122
REMARK  3 active torsions:
REMARK  status: ('A' for Active; 'I' for Inactive)
REMARK    1  A    between atoms: C4_6  and  C5_7 
REMARK    2  A    between atoms: C5_7  and  C6_8 
REMARK    3  A    between atoms: C5_7  and  C12_16 
ROOT
HETATM    1  C12   D T 441     -11.985  13.947 -22.207  1.00 19.85     0.021 A 
HETATM    2  C13   D T 441     -11.332  15.041 -21.571  1.00 19.83    -0.000 A 
HETATM    3  C14   D T 441      -9.919  15.191 -21.635  1.00 20.16     0.016 A 
HETATM    4  C15   D T 441     -11.201  13.023 -22.941  1.00 20.41    -0.000 A 
HETATM    5  C16   D T 441      -9.805  13.162 -23.008  1.00 20.73     0.017 A 
HETATM    6  C17   D T 441      -9.154  14.229 -22.352  1.00 21.09     0.062 A 
HETATM    7  N4    D T 441      -7.725  14.316 -22.351  1.00 20.91    -0.294 N 
HETATM    8  C18   D T 441      -6.897  13.328 -23.103  1.00 20.23     0.134 C 
HETATM    9  C19   D T 441      -7.078  15.350 -21.639  1.00 22.47     0.261 A 
HETATM   10  O1    D T 441      -5.848  15.398 -21.597  1.00 22.92    -0.267 OA
HETATM   11  C20   D T 441      -7.834  16.303 -20.950  1.00 22.04     0.061 A 
HETATM   12  C21   D T 441      -9.245  16.251 -20.942  1.00 20.64     0.006 A 
HETATM   13  C22   D T 441      -9.946  17.320 -20.324  1.00 21.65     0.001 A 
HETATM   14  C23   D T 441     -10.839  17.095 -19.251  1.00 20.99     0.011 A 
HETATM   15  C24   D T 441     -11.475  18.190 -18.625  1.00 22.35     0.058 A 
HETATM   16 CL2    D T 441     -12.576  17.922 -17.266  1.00 26.30    -0.082 Cl
HETATM   17  C25   D T 441     -11.228  19.505 -19.062  1.00 21.98     0.011 A 
HETATM   18  C26   D T 441     -10.342  19.733 -20.126  1.00 20.12     0.001 A 
HETATM   19  C27   D T 441      -9.705  18.648 -20.754  1.00 21.15     0.000 A 
ENDROOT
BRANCH   1  20
HETATM   20  C5    D T 441     -13.383  13.664 -21.973  1.00 20.67     0.342 C 
HETATM   21  N3    D T 441     -13.355  12.451 -21.132  1.00 22.80     0.629 N 
BRANCH  20  22
HETATM   22  C4    D T 441     -14.072  14.654 -21.169  1.00 19.37     0.100 A 
HETATM   23  N1    D T 441     -14.072  14.664 -19.850  1.00 19.33    -0.308 N 
HETATM   24  C1    D T 441     -13.341  13.754 -18.929  1.00 19.43     0.132 C 
HETATM   25  C2    D T 441     -14.877  15.654 -19.469  1.00 17.45     0.178 A 
HETATM   26  N2    D T 441     -15.363  16.236 -20.598  1.00 18.66    -0.223 NA
HETATM   27  C3    D T 441     -14.852  15.601 -21.674  1.00 16.78     0.116 A 
ENDBRANCH  20  22
BRANCH  20  28
HETATM   28  C6    D T 441     -14.114  13.315 -23.155  1.00 20.70     0.021 A 
HETATM   29  C7    D T 441     -13.887  14.021 -24.363  1.00 21.08    -0.001 A 
HETATM   30  C8    D T 441     -14.552  13.654 -25.542  1.00 21.56     0.011 A 
HETATM   31  C9    D T 441     -15.451  12.579 -25.538  1.00 22.96     0.058 A 
HETATM   32 CL1    D T 441     -16.249  12.103 -27.057  1.00 26.89    -0.082 Cl
HETATM   33  C10   D T 441     -15.697  11.866 -24.347  1.00 22.08     0.011 A 
HETATM   34  C11   D T 441     -15.030  12.232 -23.156  1.00 21.58    -0.001 A 
ENDBRANCH  20  28
ENDBRANCH   1  20
TORSDOF 3
ENDMDL
