MODEL 1
REMARK VINA RESULT:    -7.935      0.000      0.000
REMARK INTER + INTRA:          -8.994
REMARK INTER:                  -8.862
REMARK INTRA:                  -0.132
REMARK UNBOUND:                -0.132
REMARK  2 active torsions:
REMARK  status: ('A' for Active; 'I' for Inactive)
REMARK    1  A    between atoms: C5_4  and  O7_13 
REMARK    2  A    between atoms: C8_10  and  O7_13 
ROOT
HETATM    1  O7    D T 705      -5.642  13.695 -20.914  1.00 22.05    -0.304 OA
ENDROOT
BRANCH   1   2
HETATM    2  C5    D T 705      -4.900  14.326 -19.973  1.00 22.37     0.125 A 
HETATM    3  C6    D T 705      -4.614  15.751 -20.206  1.00 22.42     0.154 A 
HETATM    4  C1    D T 705      -3.849  16.426 -19.261  1.00 22.18     0.041 A 
HETATM    5  O17   D T 705      -5.101  16.325 -21.309  1.00 21.45    -0.188 OA
HETATM    6  C2    D T 705      -3.379  15.758 -18.144  1.00 22.53     0.060 A 
HETATM    7  C3    D T 705      -3.650  14.401 -17.929  1.00 22.56     0.014 A 
HETATM    8 CL14   D T 705      -2.407  16.664 -16.954  1.00 21.73    -0.082 Cl
HETATM    9  C4    D T 705      -4.411  13.683 -18.847  1.00 22.81     0.028 A 
ENDBRANCH   1   2
BRANCH   1  10
HETATM   10  C8    D T 705      -5.097  13.421 -22.122  1.00 21.94     0.111 A 
HETATM   11  C9    D T 705      -5.921  13.706 -23.303  1.00 22.85     0.081 A 
HETATM   12  C10   D T 705      -5.423  13.449 -24.569  1.00 22.60     0.025 A 
HETATM   13 CL16   D T 705      -7.544  14.382 -23.041  1.00 21.30    -0.080 Cl
HETATM   14  C11   D T 705      -4.152  12.920 -24.679  1.00 22.34     0.059 A 
HETATM   15  C12   D T 705      -3.360  12.651 -23.563  1.00 22.46     0.013 A 
HETATM   16 CL15   D T 705      -3.501  12.570 -26.289  1.00 24.32    -0.082 Cl
HETATM   17  C13   D T 705      -3.825  12.893 -22.281  1.00 21.87     0.026 A 
ENDBRANCH   1  10
TORSDOF 2
ENDMDL
MODEL 2
REMARK VINA RESULT:    -7.913      1.855      5.941
REMARK INTER + INTRA:          -8.970
REMARK INTER:                  -8.895
REMARK INTRA:                  -0.075
REMARK UNBOUND:                -0.132
REMARK  2 active torsions:
REMARK  status: ('A' for Active; 'I' for Inactive)
REMARK    1  A    between atoms: C5_4  and  O7_13 
REMARK    2  A    between atoms: C8_10  and  O7_13 
ROOT
HETATM    1  O7    D T 705      -3.989  13.531 -21.495  1.00 22.05    -0.304 OA
ENDROOT
BRANCH   1   2
HETATM    2  C5    D T 705      -5.020  13.693 -22.359  1.00 22.37     0.125 A 
HETATM    3  C6    D T 705      -4.728  13.458 -23.783  1.00 22.42     0.154 A 
HETATM    4  C1    D T 705      -5.763  13.622 -24.697  1.00 22.18     0.041 A 
HETATM    5  O17   D T 705      -3.488  13.100 -24.127  1.00 21.45    -0.188 OA
HETATM    6  C2    D T 705      -7.021  13.998 -24.260  1.00 22.53     0.060 A 
HETATM    7  C3    D T 705      -7.293  14.224 -22.905  1.00 22.56     0.014 A 
HETATM    8 CL14   D T 705      -8.321  14.189 -25.465  1.00 21.73    -0.082 Cl
HETATM    9  C4    D T 705      -6.289  14.073 -21.952  1.00 22.81     0.028 A 
ENDBRANCH   1   2
BRANCH   1  10
HETATM   10  C8    D T 705      -3.955  14.257 -20.353  1.00 21.94     0.111 A 
HETATM   11  C9    D T 705      -3.710  15.698 -20.489  1.00 22.85     0.081 A 
HETATM   12  C10   D T 705      -3.662  16.498 -19.360  1.00 22.60     0.025 A 
HETATM   13 CL16   D T 705      -3.486  16.352 -22.127  1.00 21.30    -0.080 Cl
HETATM   14  C11   D T 705      -3.843  15.905 -18.127  1.00 22.34     0.059 A 
HETATM   15  C12   D T 705      -4.082  14.537 -17.988  1.00 22.46     0.013 A 
HETATM   16 CL15   D T 705      -3.772  16.908 -16.669  1.00 24.32    -0.082 Cl
HETATM   17  C13   D T 705      -4.134  13.705 -19.094  1.00 21.87     0.026 A 
ENDBRANCH   1  10
TORSDOF 2
ENDMDL
MODEL 3
REMARK VINA RESULT:    -7.833      1.732      2.905
REMARK INTER + INTRA:          -8.880
REMARK INTER:                  -8.603
REMARK INTRA:                  -0.277
REMARK UNBOUND:                -0.132
REMARK  2 active torsions:
REMARK  status: ('A' for Active; 'I' for Inactive)
REMARK    1  A    between atoms: C5_4  and  O7_13 
REMARK    2  A    between atoms: C8_10  and  O7_13 
ROOT
HETATM    1  O7    D T 705      -4.164  14.136 -23.183  1.00 22.05    -0.304 OA
ENDROOT
BRANCH   1   2
HETATM    2  C5    D T 705      -4.081  14.390 -21.855  1.00 22.37     0.125 A 
HETATM    3  C6    D T 705      -3.822  15.787 -21.467  1.00 22.42     0.154 A 
HETATM    4  C1    D T 705      -3.724  16.080 -20.111  1.00 22.18     0.041 A 
HETATM    5  O17   D T 705      -3.693  16.701 -22.432  1.00 21.45    -0.188 OA
HETATM    6  C2    D T 705      -3.867  15.074 -19.171  1.00 22.53     0.060 A 
HETATM    7  C3    D T 705      -4.110  13.746 -19.546  1.00 22.56     0.014 A 
HETATM    8 CL14   D T 705      -3.741  15.496 -17.444  1.00 21.73    -0.082 Cl
HETATM    9  C4    D T 705      -4.215  13.404 -20.891  1.00 22.81     0.028 A 
ENDBRANCH   1   2
BRANCH   1  10
HETATM   10  C8    D T 705      -5.376  13.928 -23.747  1.00 21.94     0.111 A 
HETATM   11  C9    D T 705      -5.396  13.235 -25.041  1.00 22.85     0.081 A 
HETATM   12  C10   D T 705      -6.603  12.990 -25.674  1.00 22.60     0.025 A 
HETATM   13 CL16   D T 705      -3.839  12.733 -25.739  1.00 21.30    -0.080 Cl
HETATM   14  C11   D T 705      -7.763  13.419 -25.061  1.00 22.34     0.059 A 
HETATM   15  C12   D T 705      -7.755  14.073 -23.829  1.00 22.46     0.013 A 
HETATM   16 CL15   D T 705      -9.318  13.128 -25.860  1.00 24.32    -0.082 Cl
HETATM   17  C13   D T 705      -6.567  14.338 -23.168  1.00 21.87     0.026 A 
ENDBRANCH   1  10
TORSDOF 2
ENDMDL
MODEL 4
REMARK VINA RESULT:    -7.663      3.397      7.153
REMARK INTER + INTRA:          -8.691
REMARK INTER:                  -8.585
REMARK INTRA:                  -0.106
REMARK UNBOUND:                -0.132
REMARK  2 active torsions:
REMARK  status: ('A' for Active; 'I' for Inactive)
REMARK    1  A    between atoms: C5_4  and  O7_13 
REMARK    2  A    between atoms: C8_10  and  O7_13 
ROOT
HETATM    1  O7    D T 705      -5.658  13.838 -25.185  1.00 22.05    -0.304 OA
ENDROOT
BRANCH   1   2
HETATM    2  C5    D T 705      -6.540  12.946 -25.695  1.00 22.37     0.125 A 
HETATM    3  C6    D T 705      -6.058  12.103 -26.802  1.00 22.42     0.154 A 
HETATM    4  C1    D T 705      -6.941  11.180 -27.352  1.00 22.18     0.041 A 
HETATM    5  O17   D T 705      -4.801  12.264 -27.223  1.00 21.45    -0.188 OA
HETATM    6  C2    D T 705      -8.231  11.076 -26.861  1.00 22.53     0.060 A 
HETATM    7  C3    D T 705      -8.686  11.883 -25.811  1.00 22.56     0.014 A 
HETATM    8 CL14   D T 705      -9.327   9.875 -27.592  1.00 21.73    -0.082 Cl
HETATM    9  C4    D T 705      -7.839  12.821 -25.228  1.00 22.81     0.028 A 
ENDBRANCH   1   2
BRANCH   1  10
HETATM   10  C8    D T 705      -5.411  13.847 -23.855  1.00 21.94     0.111 A 
HETATM   11  C9    D T 705      -4.199  13.155 -23.400  1.00 22.85     0.081 A 
HETATM   12  C10   D T 705      -3.887  13.125 -22.052  1.00 22.60     0.025 A 
HETATM   13 CL16   D T 705      -3.173  12.379 -24.629  1.00 21.30    -0.080 Cl
HETATM   14  C11   D T 705      -4.742  13.750 -21.167  1.00 22.34     0.059 A 
HETATM   15  C12   D T 705      -5.893  14.415 -21.590  1.00 22.46     0.013 A 
HETATM   16 CL15   D T 705      -4.369  13.713 -19.435  1.00 24.32    -0.082 Cl
HETATM   17  C13   D T 705      -6.239  14.463 -22.930  1.00 21.87     0.026 A 
ENDBRANCH   1  10
TORSDOF 2
ENDMDL
MODEL 5
REMARK VINA RESULT:    -7.558      2.280      3.693
REMARK INTER + INTRA:          -8.574
REMARK INTER:                  -8.323
REMARK INTRA:                  -0.251
REMARK UNBOUND:                -0.132
REMARK  2 active torsions:
REMARK  status: ('A' for Active; 'I' for Inactive)
REMARK    1  A    between atoms: C5_4  and  O7_13 
REMARK    2  A    between atoms: C8_10  and  O7_13 
ROOT
HETATM    1  O7    D T 705      -4.478  14.387 -24.075  1.00 22.05    -0.304 OA
ENDROOT
BRANCH   1   2
HETATM    2  C5    D T 705      -4.503  14.490 -22.725  1.00 22.37     0.125 A 
HETATM    3  C6    D T 705      -4.030  13.321 -21.966  1.00 22.42     0.154 A 
HETATM    4  C1    D T 705      -4.049  13.393 -20.577  1.00 22.18     0.041 A 
HETATM    5  O17   D T 705      -3.607  12.251 -22.645  1.00 21.45    -0.188 OA
HETATM    6  C2    D T 705      -4.505  14.538 -19.948  1.00 22.53     0.060 A 
HETATM    7  C3    D T 705      -4.958  15.646 -20.674  1.00 22.56     0.014 A 
HETATM    8 CL14   D T 705      -4.506  14.590 -18.166  1.00 21.73    -0.082 Cl
HETATM    9  C4    D T 705      -4.959  15.621 -22.066  1.00 22.81     0.028 A 
ENDBRANCH   1   2
BRANCH   1  10
HETATM   10  C8    D T 705      -5.498  13.772 -24.717  1.00 21.94     0.111 A 
HETATM   11  C9    D T 705      -5.141  12.839 -25.792  1.00 22.85     0.081 A 
HETATM   12  C10   D T 705      -6.137  12.177 -26.490  1.00 22.60     0.025 A 
HETATM   13 CL16   D T 705      -3.415  12.601 -26.147  1.00 21.30    -0.080 Cl
HETATM   14  C11   D T 705      -7.451  12.425 -26.150  1.00 22.34     0.059 A 
HETATM   15  C12   D T 705      -7.801  13.306 -25.126  1.00 22.46     0.013 A 
HETATM   16 CL15   D T 705      -8.742  11.599 -27.039  1.00 24.32    -0.082 Cl
HETATM   17  C13   D T 705      -6.832  13.988 -24.409  1.00 21.87     0.026 A 
ENDBRANCH   1  10
TORSDOF 2
ENDMDL
MODEL 6
REMARK VINA RESULT:    -7.462      3.010      6.822
REMARK INTER + INTRA:          -8.467
REMARK INTER:                  -8.269
REMARK INTRA:                  -0.198
REMARK UNBOUND:                -0.132
REMARK  2 active torsions:
REMARK  status: ('A' for Active; 'I' for Inactive)
REMARK    1  A    between atoms: C5_4  and  O7_13 
REMARK    2  A    between atoms: C8_10  and  O7_13 
ROOT
HETATM    1  O7    D T 705      -7.243  14.430 -24.086  1.00 22.05    -0.304 OA
ENDROOT
BRANCH   1   2
HETATM    2  C5    D T 705      -7.356  13.457 -25.022  1.00 22.37     0.125 A 
HETATM    3  C6    D T 705      -8.556  12.607 -24.946  1.00 22.42     0.154 A 
HETATM    4  C1    D T 705      -8.700  11.595 -25.889  1.00 22.18     0.041 A 
HETATM    5  O17   D T 705      -9.445  12.847 -23.978  1.00 21.45    -0.188 OA
HETATM    6  C2    D T 705      -7.731  11.410 -26.860  1.00 22.53     0.060 A 
HETATM    7  C3    D T 705      -6.590  12.218 -26.926  1.00 22.56     0.014 A 
HETATM    8 CL14   D T 705      -7.960  10.105 -28.054  1.00 21.73    -0.082 Cl
HETATM    9  C4    D T 705      -6.402  13.244 -26.004  1.00 22.81     0.028 A 
ENDBRANCH   1   2
BRANCH   1  10
HETATM   10  C8    D T 705      -6.478  14.215 -22.990  1.00 21.94     0.111 A 
HETATM   11  C9    D T 705      -7.064  14.571 -21.692  1.00 22.85     0.081 A 
HETATM   12  C10   D T 705      -6.335  14.378 -20.531  1.00 22.60     0.025 A 
HETATM   13 CL16   D T 705      -8.710  15.243 -21.678  1.00 21.30    -0.080 Cl
HETATM   14  C11   D T 705      -5.062  13.855 -20.635  1.00 22.34     0.059 A 
HETATM   15  C12   D T 705      -4.499  13.508 -21.864  1.00 22.46     0.013 A 
HETATM   16 CL15   D T 705      -4.106  13.611 -19.163  1.00 24.32    -0.082 Cl
HETATM   17  C13   D T 705      -5.197  13.690 -23.046  1.00 21.87     0.026 A 
ENDBRANCH   1  10
TORSDOF 2
ENDMDL
MODEL 7
REMARK VINA RESULT:    -7.338      2.387      6.167
REMARK INTER + INTRA:          -8.327
REMARK INTER:                  -8.066
REMARK INTRA:                  -0.262
REMARK UNBOUND:                -0.132
REMARK  2 active torsions:
REMARK  status: ('A' for Active; 'I' for Inactive)
REMARK    1  A    between atoms: C5_4  and  O7_13 
REMARK    2  A    between atoms: C8_10  and  O7_13 
ROOT
HETATM    1  O7    D T 705      -4.627  14.638 -23.520  1.00 22.05    -0.304 OA
ENDROOT
BRANCH   1   2
HETATM    2  C5    D T 705      -5.793  14.068 -23.905  1.00 22.37     0.125 A 
HETATM    3  C6    D T 705      -5.766  13.296 -25.159  1.00 22.42     0.154 A 
HETATM    4  C1    D T 705      -6.950  12.704 -25.585  1.00 22.18     0.041 A 
HETATM    5  O17   D T 705      -4.612  13.202 -25.823  1.00 21.45    -0.188 OA
HETATM    6  C2    D T 705      -8.107  12.850 -24.841  1.00 22.53     0.060 A 
HETATM    7  C3    D T 705      -8.129  13.589 -23.651  1.00 22.56     0.014 A 
HETATM    8 CL14   D T 705      -9.600  12.068 -25.422  1.00 21.73    -0.082 Cl
HETATM    9  C4    D T 705      -6.969  14.200 -23.184  1.00 22.81     0.028 A 
ENDBRANCH   1   2
BRANCH   1  10
HETATM   10  C8    D T 705      -4.355  14.777 -22.201  1.00 21.94     0.111 A 
HETATM   11  C9    D T 705      -3.895  13.579 -21.488  1.00 22.85     0.081 A 
HETATM   12  C10   D T 705      -3.600  13.653 -20.137  1.00 22.60     0.025 A 
HETATM   13 CL16   D T 705      -3.734  12.070 -22.414  1.00 21.30    -0.080 Cl
HETATM   14  C11   D T 705      -3.758  14.865 -19.496  1.00 22.34     0.059 A 
HETATM   15  C12   D T 705      -4.190  16.009 -20.167  1.00 22.46     0.013 A 
HETATM   16 CL15   D T 705      -3.399  14.978 -17.765  1.00 24.32    -0.082 Cl
HETATM   17  C13   D T 705      -4.496  15.974 -21.517  1.00 21.87     0.026 A 
ENDBRANCH   1  10
TORSDOF 2
ENDMDL
MODEL 8
REMARK VINA RESULT:    -7.153      3.935      7.461
REMARK INTER + INTRA:          -8.121
REMARK INTER:                  -7.883
REMARK INTRA:                  -0.237
REMARK UNBOUND:                -0.132
REMARK  2 active torsions:
REMARK  status: ('A' for Active; 'I' for Inactive)
REMARK    1  A    between atoms: C5_4  and  O7_13 
REMARK    2  A    between atoms: C8_10  and  O7_13 
ROOT
HETATM    1  O7    D T 705      -8.481  14.685 -24.874  1.00 22.05    -0.304 OA
ENDROOT
BRANCH   1   2
HETATM    2  C5    D T 705      -8.101  13.615 -25.612  1.00 22.37     0.125 A 
HETATM    3  C6    D T 705      -9.074  12.516 -25.729  1.00 22.42     0.154 A 
HETATM    4  C1    D T 705      -8.712  11.400 -26.475  1.00 22.18     0.041 A 
HETATM    5  O17   D T 705     -10.253  12.644 -25.115  1.00 21.45    -0.188 OA
HETATM    6  C2    D T 705      -7.468  11.343 -27.079  1.00 22.53     0.060 A 
HETATM    7  C3    D T 705      -6.544  12.389 -26.962  1.00 22.56     0.014 A 
HETATM    8 CL14   D T 705      -7.048   9.896 -28.032  1.00 21.73    -0.082 Cl
HETATM    9  C4    D T 705      -6.861  13.527 -26.225  1.00 22.81     0.028 A 
ENDBRANCH   1   2
BRANCH   1  10
HETATM   10  C8    D T 705      -8.186  14.725 -23.554  1.00 21.94     0.111 A 
HETATM   11  C9    D T 705      -9.252  15.169 -22.648  1.00 22.85     0.081 A 
HETATM   12  C10   D T 705      -9.015  15.234 -21.285  1.00 22.60     0.025 A 
HETATM   13 CL16   D T 705     -10.821  15.607 -23.361  1.00 21.30    -0.080 Cl
HETATM   14  C11   D T 705      -7.765  14.879 -20.819  1.00 22.34     0.059 A 
HETATM   15  C12   D T 705      -6.748  14.451 -21.672  1.00 22.46     0.013 A 
HETATM   16 CL15   D T 705      -7.437  14.967 -19.080  1.00 24.32    -0.082 Cl
HETATM   17  C13   D T 705      -6.946  14.376 -23.041  1.00 21.87     0.026 A 
ENDBRANCH   1  10
TORSDOF 2
ENDMDL
MODEL 9
REMARK VINA RESULT:    -7.125      1.585      2.252
REMARK INTER + INTRA:          -8.090
REMARK INTER:                  -8.223
REMARK INTRA:                   0.133
REMARK UNBOUND:                -0.132
REMARK  2 active torsions:
REMARK  status: ('A' for Active; 'I' for Inactive)
REMARK    1  A    between atoms: C5_4  and  O7_13 
REMARK    2  A    between atoms: C8_10  and  O7_13 
ROOT
HETATM    1  O7    D T 705      -6.858  15.115 -22.035  1.00 22.05    -0.304 OA
ENDROOT
BRANCH   1   2
HETATM    2  C5    D T 705      -5.940  15.275 -21.052  1.00 22.37     0.125 A 
HETATM    3  C6    D T 705      -6.274  14.697 -19.740  1.00 22.42     0.154 A 
HETATM    4  C1    D T 705      -5.355  14.849 -18.707  1.00 22.18     0.041 A 
HETATM    5  O17   D T 705      -7.439  14.057 -19.604  1.00 21.45    -0.188 OA
HETATM    6  C2    D T 705      -4.170  15.528 -18.927  1.00 22.53     0.060 A 
HETATM    7  C3    D T 705      -3.858  16.079 -20.177  1.00 22.56     0.014 A 
HETATM    8 CL14   D T 705      -3.017  15.693 -17.577  1.00 21.73    -0.082 Cl
HETATM    9  C4    D T 705      -4.747  15.953 -21.241  1.00 22.81     0.028 A 
ENDBRANCH   1   2
BRANCH   1  10
HETATM   10  C8    D T 705      -6.516  14.456 -23.167  1.00 21.94     0.111 A 
HETATM   11  C9    D T 705      -7.591  14.192 -24.132  1.00 22.85     0.081 A 
HETATM   12  C10   D T 705      -7.310  13.522 -25.310  1.00 22.60     0.025 A 
HETATM   13 CL16   D T 705      -9.227  14.762 -23.731  1.00 21.30    -0.080 Cl
HETATM   14  C11   D T 705      -6.011  13.112 -25.538  1.00 22.34     0.059 A 
HETATM   15  C12   D T 705      -4.983  13.362 -24.629  1.00 22.46     0.013 A 
HETATM   16 CL15   D T 705      -5.632  12.240 -27.033  1.00 24.32    -0.082 Cl
HETATM   17  C13   D T 705      -5.227  14.028 -23.439  1.00 21.87     0.026 A 
ENDBRANCH   1  10
TORSDOF 2
ENDMDL
