MODEL 1
REMARK VINA RESULT:   -11.468      0.000      0.000
REMARK INTER + INTRA:         -13.285
REMARK INTER:                 -13.479
REMARK INTRA:                   0.194
REMARK UNBOUND:                 0.194
REMARK  3 active torsions:
REMARK  status: ('A' for Active; 'I' for Inactive)
REMARK    1  A    between atoms: C4_6  and  C5_7 
REMARK    2  A    between atoms: C5_7  and  C6_8 
REMARK    3  A    between atoms: C5_7  and  C12_16 
ROOT
HETATM    1  C12   D T 441      -3.658  -0.422  10.490  1.00 19.85     0.021 A 
HETATM    2  C13   D T 441      -2.576  -1.326  10.692  1.00 19.83    -0.000 A 
HETATM    3  C14   D T 441      -2.798  -2.727  10.797  1.00 20.16     0.016 A 
HETATM    4  C15   D T 441      -4.967  -0.951  10.357  1.00 20.41    -0.000 A 
HETATM    5  C16   D T 441      -5.195  -2.333  10.462  1.00 20.73     0.017 A 
HETATM    6  C17   D T 441      -4.127  -3.225  10.693  1.00 21.09     0.062 A 
HETATM    7  N4    D T 441      -4.376  -4.622  10.885  1.00 20.91    -0.294 N 
HETATM    8  C18   D T 441      -5.758  -5.175  10.772  1.00 20.23     0.134 C 
HETATM    9  C19   D T 441      -3.310  -5.499  11.180  1.00 22.47     0.261 A 
HETATM   10  O1    D T 441      -3.530  -6.692  11.393  1.00 22.92    -0.267 OA
HETATM   11  C20   D T 441      -2.003  -5.008  11.264  1.00 22.04     0.061 A 
HETATM   12  C21   D T 441      -1.724  -3.638  11.067  1.00 20.64     0.006 A 
HETATM   13  C22   D T 441      -0.362  -3.235  11.047  1.00 21.65     0.001 A 
HETATM   14  C23   D T 441       0.136  -2.271  11.955  1.00 20.99     0.011 A 
HETATM   15  C24   D T 441       1.509  -1.938  11.941  1.00 22.35     0.058 A 
HETATM   16 CL2    D T 441       2.147  -0.751  13.088  1.00 26.30    -0.082 Cl
HETATM   17  C25   D T 441       2.385  -2.554  11.028  1.00 21.98     0.011 A 
HETATM   18  C26   D T 441       1.895  -3.511  10.126  1.00 20.12     0.001 A 
HETATM   19  C27   D T 441       0.530  -3.849  10.134  1.00 21.15     0.000 A 
ENDROOT
BRANCH   1  20
HETATM   20  C5    D T 441      -3.477   1.008  10.595  1.00 20.67     0.342 C 
HETATM   21  N3    D T 441      -4.171   1.353  11.852  1.00 22.80     0.629 N 
BRANCH  20  22
HETATM   22  C4    D T 441      -2.105   1.428  10.804  1.00 19.37     0.100 A 
HETATM   23  N1    D T 441      -1.166   1.374   9.880  1.00 19.33    -0.308 N 
HETATM   24  C1    D T 441      -1.306   0.960   8.459  1.00 19.43     0.132 C 
HETATM   25  C2    D T 441      -0.029   1.752  10.460  1.00 17.45     0.178 A 
HETATM   26  N2    D T 441      -0.312   2.032  11.760  1.00 18.66    -0.223 NA
HETATM   27  C3    D T 441      -1.628   1.827  11.977  1.00 16.78     0.116 A 
ENDBRANCH  20  22
BRANCH  20  28
HETATM   28  C6    D T 441      -4.126   1.757   9.561  1.00 20.70     0.021 A 
HETATM   29  C7    D T 441      -4.093   3.174   9.584  1.00 21.08    -0.001 A 
HETATM   30  C8    D T 441      -4.673   3.921   8.549  1.00 21.56     0.011 A 
HETATM   31  C9    D T 441      -5.294   3.271   7.474  1.00 22.96     0.058 A 
HETATM   32 CL1    D T 441      -5.984   4.240   6.150  1.00 26.89    -0.082 Cl
HETATM   33  C10   D T 441      -5.344   1.863   7.432  1.00 22.08     0.011 A 
HETATM   34  C11   D T 441      -4.761   1.105   8.473  1.00 21.58    -0.001 A 
ENDBRANCH  20  28
ENDBRANCH   1  20
TORSDOF 3
ENDMDL
MODEL 2
REMARK VINA RESULT:   -11.202      2.516      5.577
REMARK INTER + INTRA:         -12.973
REMARK INTER:                 -12.822
REMARK INTRA:                  -0.151
REMARK UNBOUND:                 0.194
REMARK  3 active torsions:
REMARK  status: ('A' for Active; 'I' for Inactive)
REMARK    1  A    between atoms: C4_6  and  C5_7 
REMARK    2  A    between atoms: C5_7  and  C6_8 
REMARK    3  A    between atoms: C5_7  and  C12_16 
ROOT
HETATM    1  C12   D T 441      -0.100  -2.530  11.523  1.00 19.85     0.021 A 
HETATM    2  C13   D T 441      -1.370  -1.959  11.224  1.00 19.83    -0.000 A 
HETATM    3  C14   D T 441      -2.527  -2.774  11.080  1.00 20.16     0.016 A 
HETATM    4  C15   D T 441      -0.015  -3.932  11.712  1.00 20.41    -0.000 A 
HETATM    5  C16   D T 441      -1.151  -4.744  11.570  1.00 20.73     0.017 A 
HETATM    6  C17   D T 441      -2.404  -4.182  11.244  1.00 21.09     0.062 A 
HETATM    7  N4    D T 441      -3.540  -5.024  11.015  1.00 20.91    -0.294 N 
HETATM    8  C18   D T 441      -3.443  -6.503  11.189  1.00 20.23     0.134 C 
HETATM    9  C19   D T 441      -4.774  -4.460  10.625  1.00 22.47     0.261 A 
HETATM   10  O1    D T 441      -5.738  -5.185  10.381  1.00 22.92    -0.267 OA
HETATM   11  C20   D T 441      -4.895  -3.074  10.483  1.00 22.04     0.061 A 
HETATM   12  C21   D T 441      -3.797  -2.217  10.713  1.00 20.64     0.006 A 
HETATM   13  C22   D T 441      -4.026  -0.816  10.668  1.00 21.65     0.001 A 
HETATM   14  C23   D T 441      -3.323   0.019   9.768  1.00 20.99     0.011 A 
HETATM   15  C24   D T 441      -3.620   1.399   9.714  1.00 22.35     0.058 A 
HETATM   16 CL2    D T 441      -2.763   2.449   8.576  1.00 26.30    -0.082 Cl
HETATM   17  C25   D T 441      -4.609   1.951  10.549  1.00 21.98     0.011 A 
HETATM   18  C26   D T 441      -5.309   1.126  11.443  1.00 20.12     0.001 A 
HETATM   19  C27   D T 441      -5.020  -0.248  11.503  1.00 21.15     0.000 A 
ENDROOT
BRANCH   1  20
HETATM   20  C5    D T 441       1.112  -1.746  11.460  1.00 20.67     0.342 C 
HETATM   21  N3    D T 441       1.654  -1.836  12.832  1.00 22.80     0.629 N 
BRANCH  20  22
HETATM   22  C4    D T 441       2.151  -2.307  10.618  1.00 19.37     0.100 A 
HETATM   23  N1    D T 441       3.428  -1.991  10.710  1.00 19.33    -0.308 N 
HETATM   24  C1    D T 441       4.077  -1.087  11.696  1.00 19.43     0.132 C 
HETATM   25  C2    D T 441       4.057  -2.629   9.725  1.00 17.45     0.178 A 
HETATM   26  N2    D T 441       3.121  -3.336   9.039  1.00 18.66    -0.223 NA
HETATM   27  C3    D T 441       1.913  -3.131   9.606  1.00 16.78     0.116 A 
ENDBRANCH  20  22
BRANCH  20  28
HETATM   28  C6    D T 441       0.895  -0.353  11.206  1.00 20.70     0.021 A 
HETATM   29  C7    D T 441       0.869   0.569  12.282  1.00 21.08    -0.001 A 
HETATM   30  C8    D T 441       0.716   1.942  12.046  1.00 21.56     0.011 A 
HETATM   31  C9    D T 441       0.587   2.421  10.735  1.00 22.96     0.058 A 
HETATM   32 CL1    D T 441       0.439   4.172  10.456  1.00 26.89    -0.082 Cl
HETATM   33  C10   D T 441       0.605   1.522   9.648  1.00 22.08     0.011 A 
HETATM   34  C11   D T 441       0.759   0.137   9.882  1.00 21.58    -0.001 A 
ENDBRANCH  20  28
ENDBRANCH   1  20
TORSDOF 3
ENDMDL
MODEL 3
REMARK VINA RESULT:   -10.905      2.504      6.719
REMARK INTER + INTRA:         -12.623
REMARK INTER:                 -12.702
REMARK INTRA:                   0.078
REMARK UNBOUND:                 0.194
REMARK  3 active torsions:
REMARK  status: ('A' for Active; 'I' for Inactive)
REMARK    1  A    between atoms: C4_6  and  C5_7 
REMARK    2  A    between atoms: C5_7  and  C6_8 
REMARK    3  A    between atoms: C5_7  and  C12_16 
ROOT
HETATM    1  C12   D T 441      -0.263  -2.947  10.946  1.00 19.85     0.021 A 
HETATM    2  C13   D T 441      -1.536  -2.316  10.839  1.00 19.83    -0.000 A 
HETATM    3  C14   D T 441      -2.738  -3.072  10.896  1.00 20.16     0.016 A 
HETATM    4  C15   D T 441      -0.217  -4.349  11.149  1.00 20.41    -0.000 A 
HETATM    5  C16   D T 441      -1.400  -5.104  11.205  1.00 20.73     0.017 A 
HETATM    6  C17   D T 441      -2.659  -4.483  11.068  1.00 21.09     0.062 A 
HETATM    7  N4    D T 441      -3.856  -5.268  11.039  1.00 20.91    -0.294 N 
HETATM    8  C18   D T 441      -3.806  -6.748  11.227  1.00 20.23     0.134 C 
HETATM    9  C19   D T 441      -5.108  -4.647  10.837  1.00 22.47     0.261 A 
HETATM   10  O1    D T 441      -6.133  -5.325  10.763  1.00 22.92    -0.267 OA
HETATM   11  C20   D T 441      -5.183  -3.258  10.686  1.00 22.04     0.061 A 
HETATM   12  C21   D T 441      -4.022  -2.456  10.722  1.00 20.64     0.006 A 
HETATM   13  C22   D T 441      -4.187  -1.046  10.684  1.00 21.65     0.001 A 
HETATM   14  C23   D T 441      -3.596  -0.260   9.667  1.00 20.99     0.011 A 
HETATM   15  C24   D T 441      -3.830   1.133   9.631  1.00 22.35     0.058 A 
HETATM   16 CL2    D T 441      -3.115   2.122   8.350  1.00 26.30    -0.082 Cl
HETATM   17  C25   D T 441      -4.647   1.746  10.600  1.00 21.98     0.011 A 
HETATM   18  C26   D T 441      -5.236   0.970  11.610  1.00 20.12     0.001 A 
HETATM   19  C27   D T 441      -5.007  -0.417  11.653  1.00 21.15     0.000 A 
ENDROOT
BRANCH   1  20
HETATM   20  C5    D T 441       0.961  -2.228  10.676  1.00 20.67     0.342 C 
HETATM   21  N3    D T 441       0.707  -1.591   9.368  1.00 22.80     0.629 N 
BRANCH  20  22
HETATM   22  C4    D T 441       1.222  -1.123  11.578  1.00 19.37     0.100 A 
HETATM   23  N1    D T 441       2.066  -0.143  11.321  1.00 19.33    -0.308 N 
HETATM   24  C1    D T 441       2.851   0.085  10.079  1.00 19.43     0.132 C 
HETATM   25  C2    D T 441       2.109   0.627  12.406  1.00 17.45     0.178 A 
HETATM   26  N2    D T 441       1.268   0.080  13.323  1.00 18.66    -0.223 NA
HETATM   27  C3    D T 441       0.706  -1.029  12.797  1.00 16.78     0.116 A 
ENDBRANCH  20  22
BRANCH  20  28
HETATM   28  C6    D T 441       2.106  -3.069  10.497  1.00 20.70     0.021 A 
HETATM   29  C7    D T 441       2.895  -3.441  11.614  1.00 21.08    -0.001 A 
HETATM   30  C8    D T 441       3.985  -4.310  11.464  1.00 21.56     0.011 A 
HETATM   31  C9    D T 441       4.307  -4.825  10.201  1.00 22.96     0.058 A 
HETATM   32 CL1    D T 441       5.666  -5.962  10.042  1.00 26.89    -0.082 Cl
HETATM   33  C10   D T 441       3.540  -4.464   9.074  1.00 22.08     0.011 A 
HETATM   34  C11   D T 441       2.440  -3.588   9.220  1.00 21.58    -0.001 A 
ENDBRANCH  20  28
ENDBRANCH   1  20
TORSDOF 3
ENDMDL
MODEL 4
REMARK VINA RESULT:   -10.417      3.115      6.856
REMARK INTER + INTRA:         -12.050
REMARK INTER:                 -12.565
REMARK INTRA:                   0.515
REMARK UNBOUND:                 0.194
REMARK  3 active torsions:
REMARK  status: ('A' for Active; 'I' for Inactive)
REMARK    1  A    between atoms: C4_6  and  C5_7 
REMARK    2  A    between atoms: C5_7  and  C6_8 
REMARK    3  A    between atoms: C5_7  and  C12_16 
ROOT
HETATM    1  C12   D T 441      -2.577  -3.453  11.086  1.00 19.85     0.021 A 
HETATM    2  C13   D T 441      -2.201  -2.093  10.895  1.00 19.83    -0.000 A 
HETATM    3  C14   D T 441      -3.141  -1.128  10.441  1.00 20.16     0.016 A 
HETATM    4  C15   D T 441      -3.924  -3.824  10.849  1.00 20.41    -0.000 A 
HETATM    5  C16   D T 441      -4.859  -2.878  10.398  1.00 20.73     0.017 A 
HETATM    6  C17   D T 441      -4.479  -1.537  10.179  1.00 21.09     0.062 A 
HETATM    7  N4    D T 441      -5.414  -0.597   9.637  1.00 20.91    -0.294 N 
HETATM    8  C18   D T 441      -6.826  -0.995   9.362  1.00 20.23     0.134 C 
HETATM    9  C19   D T 441      -5.009   0.727   9.359  1.00 22.47     0.261 A 
HETATM   10  O1    D T 441      -5.798   1.522   8.848  1.00 22.92    -0.267 OA
HETATM   11  C20   D T 441      -3.698   1.130   9.635  1.00 22.04     0.061 A 
HETATM   12  C21   D T 441      -2.757   0.230  10.181  1.00 20.64     0.006 A 
HETATM   13  C22   D T 441      -1.484   0.742  10.546  1.00 21.65     0.001 A 
HETATM   14  C23   D T 441      -0.292   0.226   9.987  1.00 20.99     0.011 A 
HETATM   15  C24   D T 441       0.952   0.799  10.333  1.00 22.35     0.058 A 
HETATM   16 CL2    D T 441       2.447   0.176   9.620  1.00 26.30    -0.082 Cl
HETATM   17  C25   D T 441       1.015   1.879  11.233  1.00 21.98     0.011 A 
HETATM   18  C26   D T 441      -0.165   2.395  11.790  1.00 20.12     0.001 A 
HETATM   19  C27   D T 441      -1.407   1.829  11.450  1.00 21.15     0.000 A 
ENDROOT
BRANCH   1  20
HETATM   20  C5    D T 441      -1.591  -4.479  11.339  1.00 20.67     0.342 C 
HETATM   21  N3    D T 441      -1.604  -4.617  12.810  1.00 22.80     0.629 N 
BRANCH  20  22
HETATM   22  C4    D T 441      -1.948  -5.794  10.844  1.00 19.37     0.100 A 
HETATM   23  N1    D T 441      -1.270  -6.894  11.109  1.00 19.33    -0.308 N 
HETATM   24  C1    D T 441      -0.084  -7.044  11.993  1.00 19.43     0.132 C 
HETATM   25  C2    D T 441      -1.838  -7.877  10.415  1.00 17.45     0.178 A 
HETATM   26  N2    D T 441      -2.876  -7.337   9.723  1.00 18.66    -0.223 NA
HETATM   27  C3    D T 441      -2.945  -6.017   9.996  1.00 16.78     0.116 A 
ENDBRANCH  20  22
BRANCH  20  28
HETATM   28  C6    D T 441      -0.255  -4.106  10.984  1.00 20.70     0.021 A 
HETATM   29  C7    D T 441       0.637  -3.630  11.978  1.00 21.08    -0.001 A 
HETATM   30  C8    D T 441       1.965  -3.315  11.659  1.00 21.56     0.011 A 
HETATM   31  C9    D T 441       2.429  -3.470  10.345  1.00 22.96     0.058 A 
HETATM   32 CL1    D T 441       4.131  -3.107   9.972  1.00 26.89    -0.082 Cl
HETATM   33  C10   D T 441       1.559  -3.936   9.338  1.00 22.08     0.011 A 
HETATM   34  C11   D T 441       0.219  -4.254   9.655  1.00 21.58    -0.001 A 
ENDBRANCH  20  28
ENDBRANCH   1  20
TORSDOF 3
ENDMDL
MODEL 5
REMARK VINA RESULT:    -9.901      2.538      5.024
REMARK INTER + INTRA:         -11.444
REMARK INTER:                 -11.260
REMARK INTRA:                  -0.184
REMARK UNBOUND:                 0.194
REMARK  3 active torsions:
REMARK  status: ('A' for Active; 'I' for Inactive)
REMARK    1  A    between atoms: C4_6  and  C5_7 
REMARK    2  A    between atoms: C5_7  and  C6_8 
REMARK    3  A    between atoms: C5_7  and  C12_16 
ROOT
HETATM    1  C12   D T 441      -0.211  -1.916  11.468  1.00 19.85     0.021 A 
HETATM    2  C13   D T 441      -1.589  -1.979  11.116  1.00 19.83    -0.000 A 
HETATM    3  C14   D T 441      -2.317  -3.198  11.212  1.00 20.16     0.016 A 
HETATM    4  C15   D T 441       0.420  -3.089  11.954  1.00 20.41    -0.000 A 
HETATM    5  C16   D T 441      -0.290  -4.297  12.049  1.00 20.73     0.017 A 
HETATM    6  C17   D T 441      -1.648  -4.367  11.671  1.00 21.09     0.062 A 
HETATM    7  N4    D T 441      -2.342  -5.619  11.688  1.00 20.91    -0.294 N 
HETATM    8  C18   D T 441      -1.670  -6.860  12.174  1.00 20.23     0.134 C 
HETATM    9  C19   D T 441      -3.682  -5.694  11.247  1.00 22.47     0.261 A 
HETATM   10  O1    D T 441      -4.264  -6.779  11.215  1.00 22.92    -0.267 OA
HETATM   11  C20   D T 441      -4.340  -4.540  10.813  1.00 22.04     0.061 A 
HETATM   12  C21   D T 441      -3.687  -3.288  10.796  1.00 20.64     0.006 A 
HETATM   13  C22   D T 441      -4.455  -2.142  10.459  1.00 21.65     0.001 A 
HETATM   14  C23   D T 441      -4.107  -1.315   9.366  1.00 20.99     0.011 A 
HETATM   15  C24   D T 441      -4.928  -0.217   9.028  1.00 22.35     0.058 A 
HETATM   16 CL2    D T 441      -4.515   0.810   7.647  1.00 26.30    -0.082 Cl
HETATM   17  C25   D T 441      -6.090   0.064   9.771  1.00 21.98     0.011 A 
HETATM   18  C26   D T 441      -6.439  -0.755  10.857  1.00 20.12     0.001 A 
HETATM   19  C27   D T 441      -5.626  -1.850  11.200  1.00 21.15     0.000 A 
ENDROOT
BRANCH   1  20
HETATM   20  C5    D T 441       0.589  -0.748  11.176  1.00 20.67     0.342 C 
HETATM   21  N3    D T 441       1.069  -0.316  12.505  1.00 22.80     0.629 N 
BRANCH  20  22
HETATM   22  C4    D T 441       1.796  -1.017  10.420  1.00 19.37     0.100 A 
HETATM   23  N1    D T 441       2.836  -0.208  10.376  1.00 19.33    -0.308 N 
HETATM   24  C1    D T 441       3.033   1.069  11.112  1.00 19.43     0.132 C 
HETATM   25  C2    D T 441       3.705  -0.738   9.517  1.00 17.45     0.178 A 
HETATM   26  N2    D T 441       3.155  -1.889   9.046  1.00 18.66    -0.223 NA
HETATM   27  C3    D T 441       1.945  -2.064   9.619  1.00 16.78     0.116 A 
ENDBRANCH  20  22
BRANCH  20  28
HETATM   28  C6    D T 441      -0.157   0.352  10.643  1.00 20.70     0.021 A 
HETATM   29  C7    D T 441      -0.455   0.402   9.258  1.00 21.08    -0.001 A 
HETATM   30  C8    D T 441      -1.233   1.442   8.730  1.00 21.56     0.011 A 
HETATM   31  C9    D T 441      -1.728   2.448   9.570  1.00 22.96     0.058 A 
HETATM   32 CL1    D T 441      -2.751   3.733   8.885  1.00 26.89    -0.082 Cl
HETATM   33  C10   D T 441      -1.440   2.423  10.950  1.00 22.08     0.011 A 
HETATM   34  C11   D T 441      -0.656   1.377  11.488  1.00 21.58    -0.001 A 
ENDBRANCH  20  28
ENDBRANCH   1  20
TORSDOF 3
ENDMDL
MODEL 6
REMARK VINA RESULT:    -9.456      3.446      7.189
REMARK INTER + INTRA:         -10.921
REMARK INTER:                 -11.127
REMARK INTRA:                   0.206
REMARK UNBOUND:                 0.194
REMARK  3 active torsions:
REMARK  status: ('A' for Active; 'I' for Inactive)
REMARK    1  A    between atoms: C4_6  and  C5_7 
REMARK    2  A    between atoms: C5_7  and  C6_8 
REMARK    3  A    between atoms: C5_7  and  C12_16 
ROOT
HETATM    1  C12   D T 441      -0.279  -1.506  10.249  1.00 19.85     0.021 A 
HETATM    2  C13   D T 441      -1.695  -1.562  10.099  1.00 19.83    -0.000 A 
HETATM    3  C14   D T 441      -2.462  -0.378   9.920  1.00 20.16     0.016 A 
HETATM    4  C15   D T 441       0.360  -0.242  10.181  1.00 20.41    -0.000 A 
HETATM    5  C16   D T 441      -0.391   0.932  10.007  1.00 20.73     0.017 A 
HETATM    6  C17   D T 441      -1.796   0.879   9.889  1.00 21.09     0.062 A 
HETATM    7  N4    D T 441      -2.562   2.085   9.799  1.00 20.91    -0.294 N 
HETATM    8  C18   D T 441      -1.890   3.417   9.754  1.00 20.23     0.134 C 
HETATM    9  C19   D T 441      -3.972   2.027   9.746  1.00 22.47     0.261 A 
HETATM   10  O1    D T 441      -4.635   3.065   9.718  1.00 22.92    -0.267 OA
HETATM   11  C20   D T 441      -4.622   0.789   9.759  1.00 22.04     0.061 A 
HETATM   12  C21   D T 441      -3.894  -0.418   9.835  1.00 20.64     0.006 A 
HETATM   13  C22   D T 441      -4.614  -1.637   9.721  1.00 21.65     0.001 A 
HETATM   14  C23   D T 441      -4.580  -2.613  10.744  1.00 20.99     0.011 A 
HETATM   15  C24   D T 441      -5.354  -3.788  10.619  1.00 22.35     0.058 A 
HETATM   16 CL2    D T 441      -5.337  -5.005  11.903  1.00 26.30    -0.082 Cl
HETATM   17  C25   D T 441      -6.159  -3.996   9.483  1.00 21.98     0.011 A 
HETATM   18  C26   D T 441      -6.196  -3.030   8.466  1.00 20.12     0.001 A 
HETATM   19  C27   D T 441      -5.428  -1.858   8.583  1.00 21.15     0.000 A 
ENDROOT
BRANCH   1  20
HETATM   20  C5    D T 441       0.484  -2.668  10.643  1.00 20.67     0.342 C 
HETATM   21  N3    D T 441       1.240  -3.015   9.422  1.00 22.80     0.629 N 
BRANCH  20  22
HETATM   22  C4    D T 441       1.501  -2.412  11.644  1.00 19.37     0.100 A 
HETATM   23  N1    D T 441       2.542  -3.193  11.857  1.00 19.33    -0.308 N 
HETATM   24  C1    D T 441       2.934  -4.416  11.108  1.00 19.43     0.132 C 
HETATM   25  C2    D T 441       3.196  -2.691  12.902  1.00 17.45     0.178 A 
HETATM   26  N2    D T 441       2.517  -1.588  13.312  1.00 18.66    -0.223 NA
HETATM   27  C3    D T 441       1.443  -1.412  12.514  1.00 16.78     0.116 A 
ENDBRANCH  20  22
BRANCH  20  28
HETATM   28  C6    D T 441      -0.316  -3.813  10.957  1.00 20.70     0.021 A 
HETATM   29  C7    D T 441      -1.043  -3.859  12.173  1.00 21.08    -0.001 A 
HETATM   30  C8    D T 441      -1.876  -4.947  12.470  1.00 21.56     0.011 A 
HETATM   31  C9    D T 441      -2.002  -6.006  11.561  1.00 22.96     0.058 A 
HETATM   32 CL1    D T 441      -3.100  -7.355  11.939  1.00 26.89    -0.082 Cl
HETATM   33  C10   D T 441      -1.284  -5.986  10.347  1.00 22.08     0.011 A 
HETATM   34  C11   D T 441      -0.442  -4.892  10.044  1.00 21.58    -0.001 A 
ENDBRANCH  20  28
ENDBRANCH   1  20
TORSDOF 3
ENDMDL
MODEL 7
REMARK VINA RESULT:    -9.428      3.400      6.601
REMARK INTER + INTRA:         -10.887
REMARK INTER:                 -10.998
REMARK INTRA:                   0.111
REMARK UNBOUND:                 0.194
REMARK  3 active torsions:
REMARK  status: ('A' for Active; 'I' for Inactive)
REMARK    1  A    between atoms: C4_6  and  C5_7 
REMARK    2  A    between atoms: C5_7  and  C6_8 
REMARK    3  A    between atoms: C5_7  and  C12_16 
ROOT
HETATM    1  C12   D T 441       0.232  -1.663  11.147  1.00 19.85     0.021 A 
HETATM    2  C13   D T 441      -0.845  -2.594  11.091  1.00 19.83    -0.000 A 
HETATM    3  C14   D T 441      -2.194  -2.152  11.004  1.00 20.16     0.016 A 
HETATM    4  C15   D T 441      -0.064  -0.279  11.076  1.00 20.41    -0.000 A 
HETATM    5  C16   D T 441      -1.394   0.166  10.993  1.00 20.73     0.017 A 
HETATM    6  C17   D T 441      -2.462  -0.755  10.968  1.00 21.09     0.062 A 
HETATM    7  N4    D T 441      -3.818  -0.294  10.970  1.00 20.91    -0.294 N 
HETATM    8  C18   D T 441      -4.130   1.165  10.923  1.00 20.23     0.134 C 
HETATM    9  C19   D T 441      -4.883  -1.221  11.012  1.00 22.47     0.261 A 
HETATM   10  O1    D T 441      -6.047  -0.825  11.063  1.00 22.92    -0.267 OA
HETATM   11  C20   D T 441      -4.615  -2.593  11.029  1.00 22.04     0.061 A 
HETATM   12  C21   D T 441      -3.289  -3.079  11.015  1.00 20.64     0.006 A 
HETATM   13  C22   D T 441      -3.097  -4.482  10.911  1.00 21.65     0.001 A 
HETATM   14  C23   D T 441      -2.385  -5.206  11.896  1.00 20.99     0.011 A 
HETATM   15  C24   D T 441      -2.264  -6.608  11.786  1.00 22.35     0.058 A 
HETATM   16 CL2    D T 441      -1.397  -7.526  13.026  1.00 26.30    -0.082 Cl
HETATM   17  C25   D T 441      -2.844  -7.293  10.702  1.00 21.98     0.011 A 
HETATM   18  C26   D T 441      -3.550  -6.580   9.722  1.00 20.12     0.001 A 
HETATM   19  C27   D T 441      -3.676  -5.183   9.824  1.00 21.15     0.000 A 
ENDROOT
BRANCH   1  20
HETATM   20  C5    D T 441       1.580  -2.087  11.449  1.00 20.67     0.342 C 
HETATM   21  N3    D T 441       1.820  -1.542  12.801  1.00 22.80     0.629 N 
BRANCH  20  22
HETATM   22  C4    D T 441       1.744  -3.519  11.596  1.00 19.37     0.100 A 
HETATM   23  N1    D T 441       1.712  -4.374  10.592  1.00 19.33    -0.308 N 
HETATM   24  C1    D T 441       1.582  -4.075   9.142  1.00 19.43     0.132 C 
HETATM   25  C2    D T 441       1.804  -5.594  11.118  1.00 17.45     0.178 A 
HETATM   26  N2    D T 441       1.890  -5.447  12.466  1.00 18.66    -0.223 NA
HETATM   27  C3    D T 441       1.852  -4.132  12.768  1.00 16.78     0.116 A 
ENDBRANCH  20  22
BRANCH  20  28
HETATM   28  C6    D T 441       2.579  -1.507  10.601  1.00 20.70     0.021 A 
HETATM   29  C7    D T 441       3.952  -1.659  10.917  1.00 21.08    -0.001 A 
HETATM   30  C8    D T 441       4.944  -1.148  10.068  1.00 21.56     0.011 A 
HETATM   31  C9    D T 441       4.585  -0.479   8.890  1.00 22.96     0.058 A 
HETATM   32 CL1    D T 441       5.861   0.122   7.804  1.00 26.89    -0.082 Cl
HETATM   33  C10   D T 441       3.225  -0.310   8.557  1.00 22.08     0.011 A 
HETATM   34  C11   D T 441       2.222  -0.824   9.410  1.00 21.58    -0.001 A 
ENDBRANCH  20  28
ENDBRANCH   1  20
TORSDOF 3
ENDMDL
MODEL 8
REMARK VINA RESULT:    -9.386      3.398      6.506
REMARK INTER + INTRA:         -10.838
REMARK INTER:                 -10.854
REMARK INTRA:                   0.016
REMARK UNBOUND:                 0.194
REMARK  3 active torsions:
REMARK  status: ('A' for Active; 'I' for Inactive)
REMARK    1  A    between atoms: C4_6  and  C5_7 
REMARK    2  A    between atoms: C5_7  and  C6_8 
REMARK    3  A    between atoms: C5_7  and  C12_16 
ROOT
HETATM    1  C12   D T 441      -0.294  -0.712  10.083  1.00 19.85     0.021 A 
HETATM    2  C13   D T 441      -1.331  -1.650  10.357  1.00 19.83    -0.000 A 
HETATM    3  C14   D T 441      -2.664  -1.220  10.601  1.00 20.16     0.016 A 
HETATM    4  C15   D T 441      -0.624   0.664  10.022  1.00 20.41    -0.000 A 
HETATM    5  C16   D T 441      -1.937   1.098  10.264  1.00 20.73     0.017 A 
HETATM    6  C17   D T 441      -2.958   0.172  10.565  1.00 21.09     0.062 A 
HETATM    7  N4    D T 441      -4.275   0.626  10.896  1.00 20.91    -0.294 N 
HETATM    8  C18   D T 441      -4.616   2.078  10.857  1.00 20.23     0.134 C 
HETATM    9  C19   D T 441      -5.276  -0.302  11.260  1.00 22.47     0.261 A 
HETATM   10  O1    D T 441      -6.394   0.090  11.592  1.00 22.92    -0.267 OA
HETATM   11  C20   D T 441      -4.987  -1.670  11.277  1.00 22.04     0.061 A 
HETATM   12  C21   D T 441      -3.701  -2.150  10.944  1.00 20.64     0.006 A 
HETATM   13  C22   D T 441      -3.517  -3.556  10.866  1.00 21.65     0.001 A 
HETATM   14  C23   D T 441      -2.561  -4.222  11.668  1.00 20.99     0.011 A 
HETATM   15  C24   D T 441      -2.446  -5.628  11.602  1.00 22.35     0.058 A 
HETATM   16 CL2    D T 441      -1.270  -6.473  12.619  1.00 26.30    -0.082 Cl
HETATM   17  C25   D T 441      -3.274  -6.373  10.742  1.00 21.98     0.011 A 
HETATM   18  C26   D T 441      -4.224  -5.717   9.944  1.00 20.12     0.001 A 
HETATM   19  C27   D T 441      -4.344  -4.317  10.004  1.00 21.15     0.000 A 
ENDROOT
BRANCH   1  20
HETATM   20  C5    D T 441       1.094  -1.113  10.046  1.00 20.67     0.342 C 
HETATM   21  N3    D T 441       1.405  -1.150   8.602  1.00 22.80     0.629 N 
BRANCH  20  22
HETATM   22  C4    D T 441       2.018  -0.140  10.595  1.00 19.37     0.100 A 
HETATM   23  N1    D T 441       1.935   0.351  11.817  1.00 19.33    -0.308 N 
HETATM   24  C1    D T 441       0.966  -0.015  12.884  1.00 19.43     0.132 C 
HETATM   25  C2    D T 441       2.888   1.273  11.930  1.00 17.45     0.178 A 
HETATM   26  N2    D T 441       3.545   1.323  10.741  1.00 18.66    -0.223 NA
HETATM   27  C3    D T 441       2.993   0.427   9.896  1.00 16.78     0.116 A 
ENDBRANCH  20  22
BRANCH  20  28
HETATM   28  C6    D T 441       1.334  -2.435  10.541  1.00 20.70     0.021 A 
HETATM   29  C7    D T 441       2.027  -3.378   9.740  1.00 21.08    -0.001 A 
HETATM   30  C8    D T 441       2.321  -4.657  10.231  1.00 21.56     0.011 A 
HETATM   31  C9    D T 441       1.932  -5.020  11.528  1.00 22.96     0.058 A 
HETATM   32 CL1    D T 441       2.356  -6.634  12.147  1.00 26.89    -0.082 Cl
HETATM   33  C10   D T 441       1.237  -4.102  12.341  1.00 22.08     0.011 A 
HETATM   34  C11   D T 441       0.938  -2.811  11.850  1.00 21.58    -0.001 A 
ENDBRANCH  20  28
ENDBRANCH   1  20
TORSDOF 3
ENDMDL
MODEL 9
REMARK VINA RESULT:    -9.252      3.394      5.890
REMARK INTER + INTRA:         -10.681
REMARK INTER:                 -11.218
REMARK INTRA:                   0.537
REMARK UNBOUND:                 0.194
REMARK  3 active torsions:
REMARK  status: ('A' for Active; 'I' for Inactive)
REMARK    1  A    between atoms: C4_6  and  C5_7 
REMARK    2  A    between atoms: C5_7  and  C6_8 
REMARK    3  A    between atoms: C5_7  and  C12_16 
ROOT
HETATM    1  C12   D T 441      -2.220   0.796  10.808  1.00 19.85     0.021 A 
HETATM    2  C13   D T 441      -1.098  -0.073  10.934  1.00 19.83    -0.000 A 
HETATM    3  C14   D T 441       0.230   0.436  10.926  1.00 20.16     0.016 A 
HETATM    4  C15   D T 441      -1.989   2.191  10.712  1.00 20.41    -0.000 A 
HETATM    5  C16   D T 441      -0.681   2.702  10.702  1.00 20.73     0.017 A 
HETATM    6  C17   D T 441       0.432   1.839  10.795  1.00 21.09     0.062 A 
HETATM    7  N4    D T 441       1.763   2.357  10.696  1.00 20.91    -0.294 N 
HETATM    8  C18   D T 441       2.005   3.824  10.568  1.00 20.23     0.134 C 
HETATM    9  C19   D T 441       2.870   1.480  10.725  1.00 22.47     0.261 A 
HETATM   10  O1    D T 441       4.012   1.920  10.592  1.00 22.92    -0.267 OA
HETATM   11  C20   D T 441       2.668   0.104  10.872  1.00 22.04     0.061 A 
HETATM   12  C21   D T 441       1.368  -0.435  10.984  1.00 20.64     0.006 A 
HETATM   13  C22   D T 441       1.247  -1.825  11.252  1.00 21.65     0.001 A 
HETATM   14  C23   D T 441       0.545  -2.688  10.379  1.00 20.99     0.011 A 
HETATM   15  C24   D T 441       0.494  -4.073  10.651  1.00 22.35     0.058 A 
HETATM   16 CL2    D T 441      -0.361  -5.164   9.552  1.00 26.30    -0.082 Cl
HETATM   17  C25   D T 441       1.136  -4.602  11.786  1.00 21.98     0.011 A 
HETATM   18  C26   D T 441       1.834  -3.750  12.656  1.00 20.12     0.001 A 
HETATM   19  C27   D T 441       1.889  -2.370  12.392  1.00 21.15     0.000 A 
ENDROOT
BRANCH   1  20
HETATM   20  C5    D T 441      -3.553   0.281  10.600  1.00 20.67     0.342 C 
HETATM   21  N3    D T 441      -4.305   0.783  11.769  1.00 22.80     0.629 N 
BRANCH  20  22
HETATM   22  C4    D T 441      -4.243   0.837   9.453  1.00 19.37     0.100 A 
HETATM   23  N1    D T 441      -3.667   1.087   8.294  1.00 19.33    -0.308 N 
HETATM   24  C1    D T 441      -2.264   0.804   7.891  1.00 19.43     0.132 C 
HETATM   25  C2    D T 441      -4.582   1.672   7.524  1.00 17.45     0.178 A 
HETATM   26  N2    D T 441      -5.724   1.767   8.255  1.00 18.66    -0.223 NA
HETATM   27  C3    D T 441      -5.508   1.237   9.477  1.00 16.78     0.116 A 
ENDBRANCH  20  22
BRANCH  20  28
HETATM   28  C6    D T 441      -3.642  -1.148  10.652  1.00 20.70     0.021 A 
HETATM   29  C7    D T 441      -2.822  -1.878  11.549  1.00 21.08    -0.001 A 
HETATM   30  C8    D T 441      -2.937  -3.271  11.653  1.00 21.56     0.011 A 
HETATM   31  C9    D T 441      -3.870  -3.961  10.868  1.00 22.96     0.058 A 
HETATM   32 CL1    D T 441      -4.030  -5.724  11.049  1.00 26.89    -0.082 Cl
HETATM   33  C10   D T 441      -4.693  -3.257   9.964  1.00 22.08     0.011 A 
HETATM   34  C11   D T 441      -4.580  -1.853   9.855  1.00 21.58    -0.001 A 
ENDBRANCH  20  28
ENDBRANCH   1  20
TORSDOF 3
ENDMDL
