REMARK  7 active torsions:
REMARK  status: ('A' for Active; 'I' for Inactive)
REMARK       I    between atoms: N_5  and  C_13 
REMARK    1  A    between atoms: N_5  and  C_14 
REMARK    2  A    between atoms: N_6  and  C_17 
REMARK    3  A    between atoms: N_6  and  C_20 
REMARK    4  A    between atoms: N_7  and  C_21 
REMARK    5  A    between atoms: N_7  and  C_23 
REMARK    6  A    between atoms: C_10  and  C_13 
REMARK    7  A    between atoms: C_24  and  C_29 
ROOT
HETATM    1  N   UNL     1       0.534   0.154  -0.914  1.00  0.00    -0.224 NA
HETATM    2  N   UNL     1      -1.781  -0.210  -0.353  1.00  0.00    -0.224 NA
HETATM    3  C   UNL     1       0.418   1.405  -0.422  1.00  0.00     0.133 A 
HETATM    4  C   UNL     1      -0.748   1.913   0.114  1.00  0.00     0.100 A 
HETATM    5  C   UNL     1      -1.833   1.055   0.125  1.00  0.00     0.133 A 
HETATM    6  C   UNL     1      -0.588  -0.588  -0.850  1.00  0.00     0.237 A 
ENDROOT
BRANCH   3   7
HETATM    7  N   UNL     1       1.549   2.257  -0.450  1.00  0.00    -0.341 N 
HETATM    8  H   UNL     1       1.312   3.242  -0.528  1.00  0.00     0.167 HD
BRANCH   7   9
HETATM    9  C   UNL     1       2.929   2.003  -0.384  1.00  0.00     0.035 A 
HETATM   10  C   UNL     1       3.399   0.692  -0.268  1.00  0.00     0.059 A 
HETATM   11  C   UNL     1       4.769   0.441  -0.204  1.00  0.00     0.036 A 
HETATM   12  C   UNL     1       5.676   1.500  -0.256  1.00  0.00     0.029 A 
HETATM   13  C   UNL     1       5.212   2.810  -0.372  1.00  0.00     0.004 A 
HETATM   14  C   UNL     1       3.841   3.061  -0.435  1.00  0.00     0.029 A 
BRANCH  11  15
HETATM   15  N   UNL     1       5.234  -0.870  -0.089  1.00  0.00    -0.327 N 
HETATM   16  C   UNL     1       6.557  -1.311  -0.012  1.00  0.00     0.226 C 
HETATM   17  O   UNL     1       7.576  -0.633  -0.029  1.00  0.00    -0.273 OA
HETATM   18  H   UNL     1       4.511  -1.586  -0.065  1.00  0.00     0.169 HD
BRANCH  16  19
HETATM   19  C   UNL     1       6.694  -2.797   0.106  1.00  0.00     0.078 A 
HETATM   20  C   UNL     1       5.976  -3.486   1.212  1.00  0.00     0.015 A 
HETATM   21  C   UNL     1       7.469  -3.344   1.253  1.00  0.00     0.015 A 
ENDBRANCH  16  19
ENDBRANCH  11  15
ENDBRANCH   7   9
ENDBRANCH   3   7
BRANCH   5  22
HETATM   22  N   UNL     1      -3.042   1.535   0.664  1.00  0.00    -0.341 N 
HETATM   23  H   UNL     1      -2.915   2.360   1.246  1.00  0.00     0.167 HD
BRANCH  22  24
HETATM   24  C   UNL     1      -4.313   0.947   0.831  1.00  0.00     0.034 A 
HETATM   25  C   UNL     1      -4.753  -0.031  -0.061  1.00  0.00     0.045 A 
HETATM   26  C   UNL     1      -6.009  -0.613   0.106  1.00  0.00     0.050 A 
HETATM   27  C   UNL     1      -6.826  -0.217   1.165  1.00  0.00     0.016 A 
HETATM   28  C   UNL     1      -6.387   0.761   2.057  1.00  0.00     0.003 A 
HETATM   29  C   UNL     1      -5.130   1.343   1.890  1.00  0.00     0.029 A 
BRANCH  26  30
HETATM   30  C   UNL     1      -6.480  -1.659  -0.848  1.00  0.00     0.417 C 
HETATM   31  F   UNL     1      -7.726  -2.139  -0.563  1.00  0.00    -0.166 F 
HETATM   32  F   UNL     1      -6.552  -1.226  -2.141  1.00  0.00    -0.166 F 
HETATM   33  F   UNL     1      -5.663  -2.753  -0.873  1.00  0.00    -0.166 F 
ENDBRANCH  26  30
ENDBRANCH  22  24
ENDBRANCH   5  22
TORSDOF 7
