MODEL 1
REMARK VINA RESULT:     -11.0      0.000      0.000
REMARK  8 active torsions:
REMARK  status: ('A' for Active; 'I' for Inactive)
REMARK    1  A    between atoms: C1_1  and  C41_41 
REMARK    2  A    between atoms: C4_4  and  C11_11 
REMARK    3  A    between atoms: C5_5  and  C7_7 
REMARK    4  A    between atoms: C11_11  and  N12_12 
REMARK    5  A    between atoms: C15_15  and  N17_17 
REMARK    6  A    between atoms: C28_28  and  N32_32 
REMARK    7  A    between atoms: N32_32  and  C38_38 
REMARK    8  A    between atoms: C34_34  and  N40_40 
REMARK       I    between atoms: N40_40  and  C41_41 
ROOT
HETATM    1  N40   D T1001      -4.146  -5.620  10.844  1.00 37.15    -0.208 NA
HETATM    2  C41   D T1001      -3.052  -6.362  10.677  1.00 37.79     0.279 C 
HETATM    3  O42   D T1001      -2.197  -6.047   9.848  1.00 38.78    -0.265 OA
ENDROOT
BRANCH   1   4
HETATM    4  C34   D T1001      -4.512  -4.304  10.394  1.00 37.97     0.086 A 
HETATM    5  C33   D T1001      -3.970  -3.085  10.960  1.00 37.70     0.039 A 
HETATM    6  C38   D T1001      -4.378  -1.835  10.460  1.00 38.49     0.097 A 
HETATM    7  C37   D T1001      -5.320  -1.741   9.401  1.00 38.20    -0.004 A 
HETATM    8  C36   D T1001      -5.860  -2.938   8.836  1.00 37.87    -0.001 A 
HETATM    9  C39   D T1001      -5.818  -0.432   8.793  1.00 38.08     0.033 C 
HETATM   10  C35   D T1001      -5.450  -4.219   9.339  1.00 37.80     0.019 A 
BRANCH   6  11
HETATM   11  N32   D T1001      -3.818  -0.694  11.036  1.00 38.25    -0.060 NA
BRANCH  11  12
HETATM   12  C28   D T1001      -2.635  -0.051  10.691  1.00 38.40     0.750 A 
HETATM   13  N27   D T1001      -1.616  -0.854  10.426  1.00 38.34    -0.063 NA
HETATM   14  C26   D T1001      -0.391  -0.335  10.075  1.00 38.69     0.086 A 
HETATM   15  C24   D T1001       0.663  -1.217   9.805  1.00 38.59     0.053 A 
HETATM   16  C31   D T1001      -0.242   1.139  10.013  1.00 38.28     0.094 A 
HETATM   17  C23   D T1001       0.505  -2.689   9.888  1.00 37.81     0.103 A 
HETATM   18  C25   D T1001       2.030  -0.850   9.413  1.00 38.35     0.103 A 
HETATM   19  N22   D T1001       1.509  -3.568   9.631  1.00 38.06    -0.223 NA
HETATM   20  C21   D T1001       2.699  -3.058   9.282  1.00 38.54     0.199 A 
HETATM   21  N20   D T1001       3.003  -1.753   9.162  1.00 38.22    -0.223 NA
HETATM   22  C30   D T1001      -1.408   1.889  10.325  1.00 38.37     0.098 A 
HETATM   23  N29   D T1001      -2.591   1.273  10.667  1.00 38.67    -0.062 NA
ENDBRANCH  11  12
ENDBRANCH   6  11
ENDBRANCH   1   4
BRANCH   2  24
HETATM   24  C1    D T1001      -2.846  -7.611  11.475  1.00 38.65     0.058 A 
HETATM   25  C2    D T1001      -3.678  -8.049  12.553  1.00 37.93     0.004 A 
HETATM   26  C3    D T1001      -3.395  -9.252  13.234  1.00 37.95    -0.002 A 
HETATM   27  C4    D T1001      -2.258 -10.085  12.858  1.00 38.26     0.015 A 
HETATM   28  C5    D T1001      -1.392  -9.638  11.740  1.00 37.89     0.070 A 
HETATM   29  C6    D T1001      -1.725  -8.418  11.100  1.00 37.86     0.008 A 
BRANCH  27  30
HETATM   30  C11   D T1001      -2.063 -11.392  13.688  1.00 37.72     0.277 C 
BRANCH  30  31
HETATM   31  N12   D T1001      -3.250 -12.070  14.274  1.00 39.41     0.143 N 
HETATM   32  C13   D T1001      -2.989 -12.932  15.443  1.00 38.92     0.253 C 
HETATM   33  C14   D T1001      -3.661 -14.269  15.106  1.00 38.65     0.071 C 
HETATM   34  C15   D T1001      -4.811 -13.782  14.190  1.00 38.81     0.255 C 
HETATM   35  C16   D T1001      -4.018 -12.873  13.285  1.00 38.57     0.284 C 
BRANCH  34  36
HETATM   36  N17   D T1001      -5.603 -14.867  13.456  1.00 39.14     0.141 N 
HETATM   37  C18   D T1001      -7.052 -14.924  13.742  1.00 39.06     0.285 C 
HETATM   38  C19   D T1001      -5.351 -14.768  11.972  1.00 38.52     0.285 C 
ENDBRANCH  34  36
ENDBRANCH  30  31
ENDBRANCH  27  30
BRANCH  28  39
HETATM   39  C7    D T1001      -0.134 -10.410  11.200  1.00 38.38     0.418 C 
HETATM   40  F8    D T1001      -0.470 -11.708  10.963  1.00 39.18    -0.166 F 
HETATM   41  F9    D T1001       0.878 -10.376  12.104  1.00 37.72    -0.166 F 
HETATM   42  F10   D T1001       0.308  -9.924   9.996  1.00 39.32    -0.166 F 
ENDBRANCH  28  39
ENDBRANCH   2  24
TORSDOF 8
ENDMDL
MODEL 2
REMARK VINA RESULT:     -11.0      2.076      3.504
REMARK  8 active torsions:
REMARK  status: ('A' for Active; 'I' for Inactive)
REMARK    1  A    between atoms: C1_1  and  C41_41 
REMARK    2  A    between atoms: C4_4  and  C11_11 
REMARK    3  A    between atoms: C5_5  and  C7_7 
REMARK    4  A    between atoms: C11_11  and  N12_12 
REMARK    5  A    between atoms: C15_15  and  N17_17 
REMARK    6  A    between atoms: C28_28  and  N32_32 
REMARK    7  A    between atoms: N32_32  and  C38_38 
REMARK    8  A    between atoms: C34_34  and  N40_40 
REMARK       I    between atoms: N40_40  and  C41_41 
ROOT
HETATM    1  N40   D T1001      -4.033  -5.740  10.957  1.00 37.15    -0.208 NA
HETATM    2  C41   D T1001      -3.115  -6.619  10.555  1.00 37.79     0.279 C 
HETATM    3  O42   D T1001      -2.569  -6.501   9.457  1.00 38.78    -0.265 OA
ENDROOT
BRANCH   1   4
HETATM    4  C34   D T1001      -4.433  -4.450  10.462  1.00 37.97     0.086 A 
HETATM    5  C33   D T1001      -3.919  -3.199  10.981  1.00 37.70     0.039 A 
HETATM    6  C38   D T1001      -4.360  -1.978  10.441  1.00 38.49     0.097 A 
HETATM    7  C37   D T1001      -5.309  -1.945   9.384  1.00 38.20    -0.004 A 
HETATM    8  C36   D T1001      -5.822  -3.174   8.865  1.00 37.87    -0.001 A 
HETATM    9  C39   D T1001      -5.842  -0.671   8.733  1.00 38.08     0.033 C 
HETATM   10  C35   D T1001      -5.379  -4.426   9.410  1.00 37.80     0.019 A 
BRANCH   6  11
HETATM   11  N32   D T1001      -3.825  -0.803  10.971  1.00 38.25    -0.060 NA
BRANCH  11  12
HETATM   12  C28   D T1001      -2.684  -0.121  10.568  1.00 38.40     0.750 A 
HETATM   13  N27   D T1001      -1.623  -0.882  10.345  1.00 38.34    -0.063 NA
HETATM   14  C26   D T1001      -0.433  -0.321   9.943  1.00 38.69     0.086 A 
HETATM   15  C24   D T1001       0.666  -1.159   9.720  1.00 38.59     0.053 A 
HETATM   16  C31   D T1001      -0.368   1.152   9.780  1.00 38.28     0.094 A 
HETATM   17  C23   D T1001       0.592  -2.629   9.905  1.00 37.81     0.103 A 
HETATM   18  C25   D T1001       2.006  -0.745   9.286  1.00 38.35     0.103 A 
HETATM   19  N22   D T1001       1.642  -3.466   9.694  1.00 38.06    -0.223 NA
HETATM   20  C21   D T1001       2.798  -2.916   9.297  1.00 38.54     0.199 A 
HETATM   21  N20   D T1001       3.027  -1.607   9.084  1.00 38.22    -0.223 NA
HETATM   22  C30   D T1001      -1.571   1.854  10.056  1.00 38.37     0.098 A 
HETATM   23  N29   D T1001      -2.715   1.199  10.455  1.00 38.67    -0.062 NA
ENDBRANCH  11  12
ENDBRANCH   6  11
ENDBRANCH   1   4
BRANCH   2  24
HETATM   24  C1    D T1001      -2.743  -7.784  11.416  1.00 38.65     0.058 A 
HETATM   25  C2    D T1001      -3.399  -8.155  12.632  1.00 37.93     0.004 A 
HETATM   26  C3    D T1001      -2.969  -9.283  13.364  1.00 37.95    -0.002 A 
HETATM   27  C4    D T1001      -1.855 -10.103  12.902  1.00 38.26     0.015 A 
HETATM   28  C5    D T1001      -1.171  -9.726  11.643  1.00 37.89     0.070 A 
HETATM   29  C6    D T1001      -1.645  -8.580  10.956  1.00 37.86     0.008 A 
BRANCH  27  30
HETATM   30  C11   D T1001      -1.487 -11.324  13.802  1.00 37.72     0.277 C 
BRANCH  30  31
HETATM   31  N12   D T1001      -0.649 -11.114  15.013  1.00 39.41     0.143 N 
HETATM   32  C13   D T1001      -1.378 -10.778  16.252  1.00 38.92     0.253 C 
HETATM   33  C14   D T1001      -0.678  -9.527  16.795  1.00 38.65     0.071 C 
HETATM   34  C15   D T1001       0.756  -9.749  16.253  1.00 38.81     0.255 C 
HETATM   35  C16   D T1001       0.414 -10.090  14.825  1.00 38.57     0.284 C 
BRANCH  34  36
HETATM   36  N17   D T1001       1.731  -8.578  16.404  1.00 39.14     0.141 N 
HETATM   37  C18   D T1001       1.627  -7.800  17.656  1.00 39.06     0.285 C 
HETATM   38  C19   D T1001       3.143  -9.058  16.184  1.00 38.52     0.285 C 
ENDBRANCH  34  36
ENDBRANCH  30  31
ENDBRANCH  27  30
BRANCH  28  39
HETATM   39  C7    D T1001       0.039 -10.496  10.998  1.00 38.38     0.418 C 
HETATM   40  F8    D T1001       1.127 -10.380  11.808  1.00 39.18    -0.166 F 
HETATM   41  F9    D T1001       0.341  -9.985   9.778  1.00 37.72    -0.166 F 
HETATM   42  F10   D T1001      -0.190 -11.844  10.889  1.00 39.32    -0.166 F 
ENDBRANCH  28  39
ENDBRANCH   2  24
TORSDOF 8
ENDMDL
MODEL 3
REMARK VINA RESULT:     -10.9      1.265      1.636
REMARK  8 active torsions:
REMARK  status: ('A' for Active; 'I' for Inactive)
REMARK    1  A    between atoms: C1_1  and  C41_41 
REMARK    2  A    between atoms: C4_4  and  C11_11 
REMARK    3  A    between atoms: C5_5  and  C7_7 
REMARK    4  A    between atoms: C11_11  and  N12_12 
REMARK    5  A    between atoms: C15_15  and  N17_17 
REMARK    6  A    between atoms: C28_28  and  N32_32 
REMARK    7  A    between atoms: N32_32  and  C38_38 
REMARK    8  A    between atoms: C34_34  and  N40_40 
REMARK       I    between atoms: N40_40  and  C41_41 
ROOT
HETATM    1  N40   D T1001      -4.064  -5.614  11.218  1.00 37.15    -0.208 NA
HETATM    2  C41   D T1001      -2.987  -6.390  11.095  1.00 37.79     0.279 C 
HETATM    3  O42   D T1001      -2.160  -6.183  10.206  1.00 38.78    -0.265 OA
ENDROOT
BRANCH   1   4
HETATM    4  C34   D T1001      -4.427  -4.348  10.638  1.00 37.97     0.086 A 
HETATM    5  C33   D T1001      -3.937  -3.074  11.124  1.00 37.70     0.039 A 
HETATM    6  C38   D T1001      -4.338  -1.880  10.500  1.00 38.49     0.097 A 
HETATM    7  C37   D T1001      -5.225  -1.896   9.390  1.00 38.20    -0.004 A 
HETATM    8  C36   D T1001      -5.714  -3.148   8.903  1.00 37.87    -0.001 A 
HETATM    9  C39   D T1001      -5.712  -0.654   8.647  1.00 38.08     0.033 C 
HETATM   10  C35   D T1001      -5.310  -4.373   9.533  1.00 37.80     0.019 A 
BRANCH   6  11
HETATM   11  N32   D T1001      -3.828  -0.682  11.003  1.00 38.25    -0.060 NA
BRANCH  11  12
HETATM   12  C28   D T1001      -2.640  -0.046  10.663  1.00 38.40     0.750 A 
HETATM   13  N27   D T1001      -1.623  -0.854  10.406  1.00 38.34    -0.063 NA
HETATM   14  C26   D T1001      -0.394  -0.341  10.061  1.00 38.69     0.086 A 
HETATM   15  C24   D T1001       0.657  -1.228   9.799  1.00 38.59     0.053 A 
HETATM   16  C31   D T1001      -0.238   1.133   9.997  1.00 38.28     0.094 A 
HETATM   17  C23   D T1001       0.492  -2.699   9.884  1.00 37.81     0.103 A 
HETATM   18  C25   D T1001       2.028  -0.868   9.414  1.00 38.35     0.103 A 
HETATM   19  N22   D T1001       1.494  -3.583   9.634  1.00 38.06    -0.223 NA
HETATM   20  C21   D T1001       2.688  -3.079   9.291  1.00 38.54     0.199 A 
HETATM   21  N20   D T1001       2.999  -1.776   9.170  1.00 38.22    -0.223 NA
HETATM   22  C30   D T1001      -1.402   1.888  10.301  1.00 38.37     0.098 A 
HETATM   23  N29   D T1001      -2.590   1.278  10.638  1.00 38.67    -0.062 NA
ENDBRANCH  11  12
ENDBRANCH   6  11
ENDBRANCH   1   4
BRANCH   2  24
HETATM   24  C1    D T1001      -2.770  -7.546  12.017  1.00 38.65     0.058 A 
HETATM   25  C2    D T1001      -3.784  -8.454  12.458  1.00 37.93     0.004 A 
HETATM   26  C3    D T1001      -3.465  -9.520  13.326  1.00 37.95    -0.002 A 
HETATM   27  C4    D T1001      -2.099  -9.733  13.792  1.00 38.26     0.015 A 
HETATM   28  C5    D T1001      -1.042  -8.797  13.339  1.00 37.89     0.070 A 
HETATM   29  C6    D T1001      -1.426  -7.743  12.472  1.00 37.86     0.008 A 
BRANCH  27  30
HETATM   30  C11   D T1001      -1.883 -10.951  14.742  1.00 37.72     0.277 C 
BRANCH  30  31
HETATM   31  N12   D T1001      -1.727 -12.313  14.162  1.00 39.41     0.143 N 
HETATM   32  C13   D T1001      -1.010 -12.388  12.874  1.00 38.92     0.253 C 
HETATM   33  C14   D T1001      -1.926 -13.210  11.960  1.00 38.65     0.071 C 
HETATM   34  C15   D T1001      -2.639 -14.103  13.006  1.00 38.81     0.255 C 
HETATM   35  C16   D T1001      -3.017 -13.036  14.003  1.00 38.57     0.284 C 
BRANCH  34  36
HETATM   36  N17   D T1001      -3.819 -14.937  12.500  1.00 39.14     0.141 N 
HETATM   37  C18   D T1001      -4.496 -15.786  13.503  1.00 39.06     0.285 C 
HETATM   38  C19   D T1001      -4.808 -14.047  11.791  1.00 38.52     0.285 C 
ENDBRANCH  34  36
ENDBRANCH  30  31
ENDBRANCH  27  30
BRANCH  28  39
HETATM   39  C7    D T1001       0.476  -8.879  13.736  1.00 38.38     0.418 C 
HETATM   40  F8    D T1001       0.592  -8.789  15.090  1.00 39.18    -0.166 F 
HETATM   41  F9    D T1001       1.180  -7.868  13.166  1.00 37.72    -0.166 F 
HETATM   42  F10   D T1001       1.046 -10.082  13.403  1.00 39.32    -0.166 F 
ENDBRANCH  28  39
ENDBRANCH   2  24
TORSDOF 8
ENDMDL
MODEL 4
REMARK VINA RESULT:     -10.5      2.091      3.076
REMARK  8 active torsions:
REMARK  status: ('A' for Active; 'I' for Inactive)
REMARK    1  A    between atoms: C1_1  and  C41_41 
REMARK    2  A    between atoms: C4_4  and  C11_11 
REMARK    3  A    between atoms: C5_5  and  C7_7 
REMARK    4  A    between atoms: C11_11  and  N12_12 
REMARK    5  A    between atoms: C15_15  and  N17_17 
REMARK    6  A    between atoms: C28_28  and  N32_32 
REMARK    7  A    between atoms: N32_32  and  C38_38 
REMARK    8  A    between atoms: C34_34  and  N40_40 
REMARK       I    between atoms: N40_40  and  C41_41 
ROOT
HETATM    1  N40   D T1001      -4.099  -5.559  11.080  1.00 37.15    -0.208 NA
HETATM    2  C41   D T1001      -3.080  -6.381  10.825  1.00 37.79     0.279 C 
HETATM    3  O42   D T1001      -2.368  -6.212   9.834  1.00 38.78    -0.265 OA
ENDROOT
BRANCH   1   4
HETATM    4  C34   D T1001      -4.482  -4.282  10.541  1.00 37.97     0.086 A 
HETATM    5  C33   D T1001      -4.007  -3.017  11.066  1.00 37.70     0.039 A 
HETATM    6  C38   D T1001      -4.428  -1.810  10.480  1.00 38.49     0.097 A 
HETATM    7  C37   D T1001      -5.318  -1.804   9.373  1.00 38.20    -0.004 A 
HETATM    8  C36   D T1001      -5.791  -3.046   8.848  1.00 37.87    -0.001 A 
HETATM    9  C39   D T1001      -5.825  -0.546   8.670  1.00 38.08     0.033 C 
HETATM   10  C35   D T1001      -5.368  -4.284   9.439  1.00 37.80     0.019 A 
BRANCH   6  11
HETATM   11  N32   D T1001      -3.933  -0.621  11.018  1.00 38.25    -0.060 NA
BRANCH  11  12
HETATM   12  C28   D T1001      -2.727   0.010  10.740  1.00 38.40     0.750 A 
HETATM   13  N27   D T1001      -1.720  -0.801  10.453  1.00 38.34    -0.063 NA
HETATM   14  C26   D T1001      -0.475  -0.293  10.161  1.00 38.69     0.086 A 
HETATM   15  C24   D T1001       0.564  -1.184   9.865  1.00 38.59     0.053 A 
HETATM   16  C31   D T1001      -0.290   1.178  10.189  1.00 38.28     0.094 A 
HETATM   17  C23   D T1001       0.369  -2.654   9.858  1.00 37.81     0.103 A 
HETATM   18  C25   D T1001       1.948  -0.829   9.528  1.00 38.35     0.103 A 
HETATM   19  N22   D T1001       1.358  -3.541   9.573  1.00 38.06    -0.223 NA
HETATM   20  C21   D T1001       2.568  -3.042   9.284  1.00 38.54     0.199 A 
HETATM   21  N20   D T1001       2.906  -1.740   9.247  1.00 38.22    -0.223 NA
HETATM   22  C30   D T1001      -1.445   1.937  10.517  1.00 38.37     0.098 A 
HETATM   23  N29   D T1001      -2.651   1.333  10.795  1.00 38.67    -0.062 NA
ENDBRANCH  11  12
ENDBRANCH   6  11
ENDBRANCH   1   4
BRANCH   2  24
HETATM   24  C1    D T1001      -2.793  -7.542  11.722  1.00 38.65     0.058 A 
HETATM   25  C2    D T1001      -3.771  -8.275  12.465  1.00 37.93     0.004 A 
HETATM   26  C3    D T1001      -3.388  -9.363  13.277  1.00 37.95    -0.002 A 
HETATM   27  C4    D T1001      -1.993  -9.778  13.378  1.00 38.26     0.015 A 
HETATM   28  C5    D T1001      -0.973  -9.024  12.610  1.00 37.89     0.070 A 
HETATM   29  C6    D T1001      -1.419  -7.937  11.817  1.00 37.86     0.008 A 
BRANCH  27  30
HETATM   30  C11   D T1001      -1.708 -11.000  14.305  1.00 37.72     0.277 C 
BRANCH  30  31
HETATM   31  N12   D T1001      -1.693 -10.811  15.781  1.00 39.41     0.143 N 
HETATM   32  C13   D T1001      -1.084  -9.557  16.266  1.00 38.92     0.253 C 
HETATM   33  C14   D T1001      -0.073  -9.996  17.333  1.00 38.65     0.071 C 
HETATM   34  C15   D T1001      -0.748 -11.293  17.843  1.00 38.81     0.255 C 
HETATM   35  C16   D T1001      -1.050 -11.936  16.513  1.00 38.57     0.284 C 
BRANCH  34  36
HETATM   36  N17   D T1001       0.079 -12.165  18.790  1.00 39.14     0.141 N 
HETATM   37  C18   D T1001      -0.093 -13.627  18.650  1.00 39.06     0.285 C 
HETATM   38  C19   D T1001       1.535 -11.783  18.697  1.00 38.52     0.285 C 
ENDBRANCH  34  36
ENDBRANCH  30  31
ENDBRANCH  27  30
BRANCH  28  39
HETATM   39  C7    D T1001       0.568  -9.334  12.598  1.00 38.38     0.418 C 
HETATM   40  F8    D T1001       1.237  -8.264  12.085  1.00 39.18    -0.166 F 
HETATM   41  F9    D T1001       0.835 -10.425  11.837  1.00 37.72    -0.166 F 
HETATM   42  F10   D T1001       1.082  -9.513  13.857  1.00 39.32    -0.166 F 
ENDBRANCH  28  39
ENDBRANCH   2  24
TORSDOF 8
ENDMDL
MODEL 5
REMARK VINA RESULT:     -10.0      2.344      5.332
REMARK  8 active torsions:
REMARK  status: ('A' for Active; 'I' for Inactive)
REMARK    1  A    between atoms: C1_1  and  C41_41 
REMARK    2  A    between atoms: C4_4  and  C11_11 
REMARK    3  A    between atoms: C5_5  and  C7_7 
REMARK    4  A    between atoms: C11_11  and  N12_12 
REMARK    5  A    between atoms: C15_15  and  N17_17 
REMARK    6  A    between atoms: C28_28  and  N32_32 
REMARK    7  A    between atoms: N32_32  and  C38_38 
REMARK    8  A    between atoms: C34_34  and  N40_40 
REMARK       I    between atoms: N40_40  and  C41_41 
ROOT
HETATM    1  N40   D T1001      -0.246  -2.082  11.136  1.00 37.15    -0.208 NA
HETATM    2  C41   D T1001       0.291  -3.092  10.450  1.00 37.79     0.279 C 
HETATM    3  O42   D T1001       0.847  -2.893   9.369  1.00 38.78    -0.265 OA
ENDROOT
BRANCH   1   4
HETATM    4  C34   D T1001      -0.145  -0.653  11.009  1.00 37.97     0.086 A 
HETATM    5  C33   D T1001      -1.241   0.191  10.576  1.00 37.70     0.039 A 
HETATM    6  C38   D T1001      -1.062   1.583  10.480  1.00 38.49     0.097 A 
HETATM    7  C37   D T1001       0.183   2.185  10.803  1.00 38.20    -0.004 A 
HETATM    8  C36   D T1001       1.270   1.361  11.232  1.00 37.87    -0.001 A 
HETATM    9  C39   D T1001       0.469   3.684  10.733  1.00 38.08     0.033 C 
HETATM   10  C35   D T1001       1.098  -0.061  11.332  1.00 37.80     0.019 A 
BRANCH   6  11
HETATM   11  N32   D T1001      -2.152   2.349  10.067  1.00 38.25    -0.060 NA
BRANCH  11  12
HETATM   12  C28   D T1001      -3.327   1.916   9.464  1.00 38.40     0.750 A 
HETATM   13  N27   D T1001      -3.648   0.654   9.702  1.00 38.34    -0.063 NA
HETATM   14  C26   D T1001      -4.789   0.108   9.158  1.00 38.69     0.086 A 
HETATM   15  C24   D T1001      -5.092  -1.230   9.432  1.00 38.59     0.053 A 
HETATM   16  C31   D T1001      -5.635   0.966   8.293  1.00 38.28     0.094 A 
HETATM   17  C23   D T1001      -4.227  -2.081  10.284  1.00 37.81     0.103 A 
HETATM   18  C25   D T1001      -6.260  -1.977   8.946  1.00 38.35     0.103 A 
HETATM   19  N22   D T1001      -4.498  -3.382  10.567  1.00 38.06    -0.223 NA
HETATM   20  C21   D T1001      -5.614  -3.908  10.040  1.00 38.54     0.199 A 
HETATM   21  N20   D T1001      -6.499  -3.272   9.251  1.00 38.22    -0.223 NA
HETATM   22  C30   D T1001      -5.178   2.298   8.111  1.00 38.37     0.098 A 
HETATM   23  N29   D T1001      -4.018   2.750   8.701  1.00 38.67    -0.062 NA
ENDBRANCH  11  12
ENDBRANCH   6  11
ENDBRANCH   1   4
BRANCH   2  24
HETATM   24  C1    D T1001       0.207  -4.493  10.963  1.00 38.65     0.058 A 
HETATM   25  C2    D T1001       1.264  -5.197  11.622  1.00 37.93     0.004 A 
HETATM   26  C3    D T1001       1.073  -6.520  12.074  1.00 37.95    -0.002 A 
HETATM   27  C4    D T1001      -0.202  -7.205  11.892  1.00 38.26     0.015 A 
HETATM   28  C5    D T1001      -1.302  -6.482  11.210  1.00 37.89     0.070 A 
HETATM   29  C6    D T1001      -1.047  -5.158  10.774  1.00 37.86     0.008 A 
BRANCH  27  30
HETATM   30  C11   D T1001      -0.281  -8.662  12.444  1.00 37.72     0.277 C 
BRANCH  30  31
HETATM   31  N12   D T1001      -1.197  -8.967  13.576  1.00 39.41     0.143 N 
HETATM   32  C13   D T1001      -0.559  -9.137  14.896  1.00 38.92     0.253 C 
HETATM   33  C14   D T1001      -1.102 -10.468  15.429  1.00 38.65     0.071 C 
HETATM   34  C15   D T1001      -2.487 -10.503  14.737  1.00 38.81     0.255 C 
HETATM   35  C16   D T1001      -2.056 -10.157  13.335  1.00 38.57     0.284 C 
BRANCH  34  36
HETATM   36  N17   D T1001      -3.272 -11.813  14.850  1.00 39.14     0.141 N 
HETATM   37  C18   D T1001      -3.737 -12.407  13.578  1.00 39.06     0.285 C 
HETATM   38  C19   D T1001      -2.483 -12.814  15.655  1.00 38.52     0.285 C 
ENDBRANCH  34  36
ENDBRANCH  30  31
ENDBRANCH  27  30
BRANCH  28  39
HETATM   39  C7    D T1001      -2.737  -7.062  10.934  1.00 38.38     0.418 C 
HETATM   40  F8    D T1001      -2.624  -8.328  10.444  1.00 39.18    -0.166 F 
HETATM   41  F9    D T1001      -3.401  -6.299  10.030  1.00 37.72    -0.166 F 
HETATM   42  F10   D T1001      -3.488  -7.182  12.076  1.00 39.32    -0.166 F 
ENDBRANCH  28  39
ENDBRANCH   2  24
TORSDOF 8
ENDMDL
MODEL 6
REMARK VINA RESULT:      -9.9      3.880     10.478
REMARK  8 active torsions:
REMARK  status: ('A' for Active; 'I' for Inactive)
REMARK    1  A    between atoms: C1_1  and  C41_41 
REMARK    2  A    between atoms: C4_4  and  C11_11 
REMARK    3  A    between atoms: C5_5  and  C7_7 
REMARK    4  A    between atoms: C11_11  and  N12_12 
REMARK    5  A    between atoms: C15_15  and  N17_17 
REMARK    6  A    between atoms: C28_28  and  N32_32 
REMARK    7  A    between atoms: N32_32  and  C38_38 
REMARK    8  A    between atoms: C34_34  and  N40_40 
REMARK       I    between atoms: N40_40  and  C41_41 
ROOT
HETATM    1  N40   D T1001      -2.430  -5.934  12.017  1.00 37.15    -0.208 NA
HETATM    2  C41   D T1001      -2.903  -5.338  10.922  1.00 37.79     0.279 C 
HETATM    3  O42   D T1001      -3.093  -5.979   9.888  1.00 38.78    -0.265 OA
ENDROOT
BRANCH   1   4
HETATM    4  C34   D T1001      -2.263  -7.315  12.382  1.00 37.97     0.086 A 
HETATM    5  C33   D T1001      -0.971  -7.958  12.514  1.00 37.70     0.039 A 
HETATM    6  C38   D T1001      -0.894  -9.314  12.878  1.00 38.49     0.097 A 
HETATM    7  C37   D T1001      -2.068 -10.076  13.121  1.00 38.20    -0.004 A 
HETATM    8  C36   D T1001      -3.347  -9.450  12.994  1.00 37.87    -0.001 A 
HETATM    9  C39   D T1001      -2.082 -11.549  13.524  1.00 38.08     0.033 C 
HETATM   10  C35   D T1001      -3.437  -8.067  12.623  1.00 37.80     0.019 A 
BRANCH   6  11
HETATM   11  N32   D T1001       0.376  -9.880  13.000  1.00 38.25    -0.060 NA
BRANCH  11  12
HETATM   12  C28   D T1001       1.591  -9.231  13.181  1.00 38.40     0.750 A 
HETATM   13  N27   D T1001       1.616  -7.965  12.795  1.00 38.34    -0.063 NA
HETATM   14  C26   D T1001       2.764  -7.218  12.922  1.00 38.69     0.086 A 
HETATM   15  C24   D T1001       2.751  -5.884  12.499  1.00 38.59     0.053 A 
HETATM   16  C31   D T1001       3.970  -7.871  13.489  1.00 38.28     0.094 A 
HETATM   17  C23   D T1001       1.544  -5.249  11.918  1.00 37.81     0.103 A 
HETATM   18  C25   D T1001       3.872  -4.937  12.561  1.00 38.35     0.103 A 
HETATM   19  N22   D T1001       1.501  -3.956  11.500  1.00 38.06    -0.223 NA
HETATM   20  C21   D T1001       2.621  -3.230  11.632  1.00 38.54     0.199 A 
HETATM   21  N20   D T1001       3.792  -3.656  12.139  1.00 38.22    -0.223 NA
HETATM   22  C30   D T1001       3.815  -9.233  13.859  1.00 38.37     0.098 A 
HETATM   23  N29   D T1001       2.619  -9.896  13.691  1.00 38.67    -0.062 NA
ENDBRANCH  11  12
ENDBRANCH   6  11
ENDBRANCH   1   4
BRANCH   2  24
HETATM   24  C1    D T1001      -3.191  -3.870  10.915  1.00 38.65     0.058 A 
HETATM   25  C2    D T1001      -2.444  -2.878  11.625  1.00 37.93     0.004 A 
HETATM   26  C3    D T1001      -2.800  -1.515  11.541  1.00 37.95    -0.002 A 
HETATM   27  C4    D T1001      -3.928  -1.077  10.727  1.00 38.26     0.015 A 
HETATM   28  C5    D T1001      -4.706  -2.099   9.986  1.00 37.89     0.070 A 
HETATM   29  C6    D T1001      -4.303  -3.452  10.116  1.00 37.86     0.008 A 
BRANCH  27  30
HETATM   30  C11   D T1001      -4.209   0.457  10.716  1.00 37.72     0.277 C 
BRANCH  30  31
HETATM   31  N12   D T1001      -3.309   1.361   9.950  1.00 39.41     0.143 N 
HETATM   32  C13   D T1001      -2.761   0.813   8.694  1.00 38.92     0.253 C 
HETATM   33  C14   D T1001      -1.249   1.052   8.785  1.00 38.65     0.071 C 
HETATM   34  C15   D T1001      -1.218   2.322   9.669  1.00 38.81     0.255 C 
HETATM   35  C16   D T1001      -2.167   1.875  10.752  1.00 38.57     0.284 C 
BRANCH  34  36
HETATM   36  N17   D T1001       0.156   2.766  10.179  1.00 39.14     0.141 N 
HETATM   37  C18   D T1001       0.236   3.125  11.610  1.00 39.06     0.285 C 
HETATM   38  C19   D T1001       1.191   1.728   9.825  1.00 38.52     0.285 C 
ENDBRANCH  34  36
ENDBRANCH  30  31
ENDBRANCH  27  30
BRANCH  28  39
HETATM   39  C7    D T1001      -5.943  -1.807   9.061  1.00 38.38     0.418 C 
HETATM   40  F8    D T1001      -6.330  -2.960   8.451  1.00 39.18    -0.166 F 
HETATM   41  F9    D T1001      -5.629  -0.890   8.111  1.00 37.72    -0.166 F 
HETATM   42  F10   D T1001      -7.041  -1.383   9.766  1.00 39.32    -0.166 F 
ENDBRANCH  28  39
ENDBRANCH   2  24
TORSDOF 8
ENDMDL
MODEL 7
REMARK VINA RESULT:      -9.9      2.471      4.068
REMARK  8 active torsions:
REMARK  status: ('A' for Active; 'I' for Inactive)
REMARK    1  A    between atoms: C1_1  and  C41_41 
REMARK    2  A    between atoms: C4_4  and  C11_11 
REMARK    3  A    between atoms: C5_5  and  C7_7 
REMARK    4  A    between atoms: C11_11  and  N12_12 
REMARK    5  A    between atoms: C15_15  and  N17_17 
REMARK    6  A    between atoms: C28_28  and  N32_32 
REMARK    7  A    between atoms: N32_32  and  C38_38 
REMARK    8  A    between atoms: C34_34  and  N40_40 
REMARK       I    between atoms: N40_40  and  C41_41 
ROOT
HETATM    1  N40   D T1001      -4.065  -5.918  11.023  1.00 37.15    -0.208 NA
HETATM    2  C41   D T1001      -3.159  -6.826  10.660  1.00 37.79     0.279 C 
HETATM    3  O42   D T1001      -2.571  -6.734   9.582  1.00 38.78    -0.265 OA
ENDROOT
BRANCH   1   4
HETATM    4  C34   D T1001      -4.409  -4.621  10.504  1.00 37.97     0.086 A 
HETATM    5  C33   D T1001      -3.733  -3.399  10.892  1.00 37.70     0.039 A 
HETATM    6  C38   D T1001      -4.129  -2.169  10.336  1.00 38.49     0.097 A 
HETATM    7  C37   D T1001      -5.189  -2.098   9.394  1.00 38.20    -0.004 A 
HETATM    8  C36   D T1001      -5.862  -3.298   9.005  1.00 37.87    -0.001 A 
HETATM    9  C39   D T1001      -5.684  -0.812   8.736  1.00 38.08     0.033 C 
HETATM   10  C35   D T1001      -5.466  -4.559   9.566  1.00 37.80     0.019 A 
BRANCH   6  11
HETATM   11  N32   D T1001      -3.437  -1.025  10.737  1.00 38.25    -0.060 NA
BRANCH  11  12
HETATM   12  C28   D T1001      -2.138  -0.933  11.221  1.00 38.40     0.750 A 
HETATM   13  N27   D T1001      -1.539   0.228  11.009  1.00 38.34    -0.063 NA
HETATM   14  C26   D T1001      -0.250   0.439  11.440  1.00 38.69     0.086 A 
HETATM   15  C24   D T1001       0.349   1.680  11.194  1.00 38.59     0.053 A 
HETATM   16  C31   D T1001       0.450  -0.669  12.135  1.00 38.28     0.094 A 
HETATM   17  C23   D T1001      -0.356   2.773  10.482  1.00 37.81     0.103 A 
HETATM   18  C25   D T1001       1.706   2.087  11.581  1.00 38.35     0.103 A 
HETATM   19  N22   D T1001       0.200   3.987  10.230  1.00 38.06    -0.223 NA
HETATM   20  C21   D T1001       1.454   4.190  10.658  1.00 38.54     0.199 A 
HETATM   21  N20   D T1001       2.226   3.306  11.316  1.00 38.22    -0.223 NA
HETATM   22  C30   D T1001      -0.299  -1.865  12.295  1.00 38.37     0.098 A 
HETATM   23  N29   D T1001      -1.588  -1.978  11.825  1.00 38.67    -0.062 NA
ENDBRANCH  11  12
ENDBRANCH   6  11
ENDBRANCH   1   4
BRANCH   2  24
HETATM   24  C1    D T1001      -2.854  -7.995  11.542  1.00 38.65     0.058 A 
HETATM   25  C2    D T1001      -3.677  -8.458  12.616  1.00 37.93     0.004 A 
HETATM   26  C3    D T1001      -3.295  -9.579  13.382  1.00 37.95    -0.002 A 
HETATM   27  C4    D T1001      -2.059 -10.302  13.099  1.00 38.26     0.015 A 
HETATM   28  C5    D T1001      -1.201  -9.829  11.987  1.00 37.89     0.070 A 
HETATM   29  C6    D T1001      -1.636  -8.694  11.259  1.00 37.86     0.008 A 
BRANCH  27  30
HETATM   30  C11   D T1001      -1.759 -11.527  14.017  1.00 37.72     0.277 C 
BRANCH  30  31
HETATM   31  N12   D T1001      -0.618 -11.466  14.970  1.00 39.41     0.143 N 
HETATM   32  C13   D T1001      -0.595 -12.505  16.018  1.00 38.92     0.253 C 
HETATM   33  C14   D T1001      -0.413 -11.736  17.332  1.00 38.65     0.071 C 
HETATM   34  C15   D T1001       0.377 -10.503  16.829  1.00 38.81     0.255 C 
HETATM   35  C16   D T1001      -0.481 -10.146  15.641  1.00 38.57     0.284 C 
BRANCH  34  36
HETATM   36  N17   D T1001       0.572  -9.362  17.831  1.00 39.14     0.141 N 
HETATM   37  C18   D T1001       1.137  -9.735  19.144  1.00 39.06     0.285 C 
HETATM   38  C19   D T1001       1.373  -8.254  17.194  1.00 38.52     0.285 C 
ENDBRANCH  34  36
ENDBRANCH  30  31
ENDBRANCH  27  30
BRANCH  28  39
HETATM   39  C7    D T1001       0.156 -10.487  11.542  1.00 38.38     0.418 C 
HETATM   40  F8    D T1001       0.438 -10.115  10.264  1.00 39.18    -0.166 F 
HETATM   41  F9    D T1001       0.077 -11.841  11.599  1.00 37.72    -0.166 F 
HETATM   42  F10   D T1001       1.223 -10.056  12.289  1.00 39.32    -0.166 F 
ENDBRANCH  28  39
ENDBRANCH   2  24
TORSDOF 8
ENDMDL
MODEL 8
REMARK VINA RESULT:      -9.8      4.587     11.494
REMARK  8 active torsions:
REMARK  status: ('A' for Active; 'I' for Inactive)
REMARK    1  A    between atoms: C1_1  and  C41_41 
REMARK    2  A    between atoms: C4_4  and  C11_11 
REMARK    3  A    between atoms: C5_5  and  C7_7 
REMARK    4  A    between atoms: C11_11  and  N12_12 
REMARK    5  A    between atoms: C15_15  and  N17_17 
REMARK    6  A    between atoms: C28_28  and  N32_32 
REMARK    7  A    between atoms: N32_32  and  C38_38 
REMARK    8  A    between atoms: C34_34  and  N40_40 
REMARK       I    between atoms: N40_40  and  C41_41 
ROOT
HETATM    1  N40   D T1001      -2.580  -5.505  11.743  1.00 37.15    -0.208 NA
HETATM    2  C41   D T1001      -3.425  -4.873  10.929  1.00 37.79     0.279 C 
HETATM    3  O42   D T1001      -4.200  -5.505  10.210  1.00 38.78    -0.265 OA
ENDROOT
BRANCH   1   4
HETATM    4  C34   D T1001      -2.484  -6.872  12.180  1.00 37.97     0.086 A 
HETATM    5  C33   D T1001      -1.227  -7.536  12.461  1.00 37.70     0.039 A 
HETATM    6  C38   D T1001      -1.219  -8.877  12.886  1.00 38.49     0.097 A 
HETATM    7  C37   D T1001      -2.429  -9.602  13.048  1.00 38.20    -0.004 A 
HETATM    8  C36   D T1001      -3.674  -8.956  12.773  1.00 37.87    -0.001 A 
HETATM    9  C39   D T1001      -2.519 -11.055  13.508  1.00 38.08     0.033 C 
HETATM   10  C35   D T1001      -3.694  -7.588  12.338  1.00 37.80     0.019 A 
BRANCH   6  11
HETATM   11  N32   D T1001       0.019  -9.464  13.152  1.00 38.25    -0.060 NA
BRANCH  11  12
HETATM   12  C28   D T1001       0.972  -9.073  14.085  1.00 38.40     0.750 A 
HETATM   13  N27   D T1001       0.676  -9.356  15.344  1.00 38.34    -0.063 NA
HETATM   14  C26   D T1001       1.541  -9.017  16.359  1.00 38.69     0.086 A 
HETATM   15  C24   D T1001       1.191  -9.331  17.677  1.00 38.59     0.053 A 
HETATM   16  C31   D T1001       2.800  -8.316  16.005  1.00 38.28     0.094 A 
HETATM   17  C23   D T1001      -0.079 -10.016  18.017  1.00 37.81     0.103 A 
HETATM   18  C25   D T1001       1.984  -9.053  18.881  1.00 38.35     0.103 A 
HETATM   19  N22   D T1001      -0.444 -10.335  19.287  1.00 38.06    -0.223 NA
HETATM   20  C21   D T1001       0.405 -10.008  20.272  1.00 38.54     0.199 A 
HETATM   21  N20   D T1001       1.591  -9.389  20.130  1.00 38.22    -0.223 NA
HETATM   22  C30   D T1001       2.997  -8.064  14.622  1.00 38.37     0.098 A 
HETATM   23  N29   D T1001       2.067  -8.445  13.680  1.00 38.67    -0.062 NA
ENDBRANCH  11  12
ENDBRANCH   6  11
ENDBRANCH   1   4
BRANCH   2  24
HETATM   24  C1    D T1001      -3.435  -3.379  10.849  1.00 38.65     0.058 A 
HETATM   25  C2    D T1001      -2.462  -2.514  11.440  1.00 37.93     0.004 A 
HETATM   26  C3    D T1001      -2.564  -1.113  11.294  1.00 37.95    -0.002 A 
HETATM   27  C4    D T1001      -3.655  -0.510  10.536  1.00 38.26     0.015 A 
HETATM   28  C5    D T1001      -4.666  -1.401   9.920  1.00 37.89     0.070 A 
HETATM   29  C6    D T1001      -4.512  -2.797  10.106  1.00 37.86     0.008 A 
BRANCH  27  30
HETATM   30  C11   D T1001      -3.646   1.048  10.448  1.00 37.72     0.277 C 
BRANCH  30  31
HETATM   31  N12   D T1001      -2.476   1.740   9.843  1.00 39.41     0.143 N 
HETATM   32  C13   D T1001      -1.859   1.070   8.682  1.00 38.92     0.253 C 
HETATM   33  C14   D T1001      -0.362   1.006   9.011  1.00 38.65     0.071 C 
HETATM   34  C15   D T1001      -0.218   2.262   9.905  1.00 38.81     0.255 C 
HETATM   35  C16   D T1001      -1.393   2.032  10.821  1.00 38.57     0.284 C 
BRANCH  34  36
HETATM   36  N17   D T1001       1.120   2.434  10.630  1.00 39.14     0.141 N 
HETATM   37  C18   D T1001       1.239   1.773  11.946  1.00 39.06     0.285 C 
HETATM   38  C19   D T1001       2.250   2.027   9.718  1.00 38.52     0.285 C 
ENDBRANCH  34  36
ENDBRANCH  30  31
ENDBRANCH  27  30
BRANCH  28  39
HETATM   39  C7    D T1001      -5.899  -0.924   9.069  1.00 38.38     0.418 C 
HETATM   40  F8    D T1001      -6.932  -1.793   9.249  1.00 39.18    -0.166 F 
HETATM   41  F9    D T1001      -5.587  -0.880   7.749  1.00 37.72    -0.166 F 
HETATM   42  F10   D T1001      -6.379   0.297   9.470  1.00 39.32    -0.166 F 
ENDBRANCH  28  39
ENDBRANCH   2  24
TORSDOF 8
ENDMDL
MODEL 9
REMARK VINA RESULT:      -9.7      3.418      5.911
REMARK  8 active torsions:
REMARK  status: ('A' for Active; 'I' for Inactive)
REMARK    1  A    between atoms: C1_1  and  C41_41 
REMARK    2  A    between atoms: C4_4  and  C11_11 
REMARK    3  A    between atoms: C5_5  and  C7_7 
REMARK    4  A    between atoms: C11_11  and  N12_12 
REMARK    5  A    between atoms: C15_15  and  N17_17 
REMARK    6  A    between atoms: C28_28  and  N32_32 
REMARK    7  A    between atoms: N32_32  and  C38_38 
REMARK    8  A    between atoms: C34_34  and  N40_40 
REMARK       I    between atoms: N40_40  and  C41_41 
ROOT
HETATM    1  N40   D T1001      -0.358  -2.321  11.575  1.00 37.15    -0.208 NA
HETATM    2  C41   D T1001       0.096  -3.289  10.779  1.00 37.79     0.279 C 
HETATM    3  O42   D T1001       0.505  -3.032   9.646  1.00 38.78    -0.265 OA
ENDROOT
BRANCH   1   4
HETATM    4  C34   D T1001      -0.291  -0.886  11.504  1.00 37.97     0.086 A 
HETATM    5  C33   D T1001      -1.405  -0.052  11.100  1.00 37.70     0.039 A 
HETATM    6  C38   D T1001      -1.260   1.346  11.058  1.00 38.49     0.097 A 
HETATM    7  C37   D T1001      -0.030   1.965  11.408  1.00 38.20    -0.004 A 
HETATM    8  C36   D T1001       1.075   1.151  11.808  1.00 37.87    -0.001 A 
HETATM    9  C39   D T1001       0.220   3.472  11.397  1.00 38.08     0.033 C 
HETATM   10  C35   D T1001       0.937  -0.277  11.854  1.00 37.80     0.019 A 
BRANCH   6  11
HETATM   11  N32   D T1001      -2.367   2.102  10.671  1.00 38.25    -0.060 NA
BRANCH  11  12
HETATM   12  C28   D T1001      -3.463   1.695   9.919  1.00 38.40     0.750 A 
HETATM   13  N27   D T1001      -3.754   0.407  10.001  1.00 38.34    -0.063 NA
HETATM   14  C26   D T1001      -4.817  -0.115   9.300  1.00 38.69     0.086 A 
HETATM   15  C24   D T1001      -5.091  -1.484   9.411  1.00 38.59     0.053 A 
HETATM   16  C31   D T1001      -5.613   0.798   8.444  1.00 38.28     0.094 A 
HETATM   17  C23   D T1001      -4.276  -2.389  10.256  1.00 37.81     0.103 A 
HETATM   18  C25   D T1001      -6.179  -2.213   8.745  1.00 38.35     0.103 A 
HETATM   19  N22   D T1001      -4.520  -3.720  10.384  1.00 38.06    -0.223 NA
HETATM   20  C21   D T1001      -5.560  -4.223   9.703  1.00 38.54     0.199 A 
HETATM   21  N20   D T1001      -6.394  -3.538   8.899  1.00 38.22    -0.223 NA
HETATM   22  C30   D T1001      -5.194   2.155   8.438  1.00 38.37     0.098 A 
HETATM   23  N29   D T1001      -4.113   2.581   9.177  1.00 38.67    -0.062 NA
ENDBRANCH  11  12
ENDBRANCH   6  11
ENDBRANCH   1   4
BRANCH   2  24
HETATM   24  C1    D T1001       0.097  -4.714  11.232  1.00 38.65     0.058 A 
HETATM   25  C2    D T1001       1.253  -5.453  11.635  1.00 37.93     0.004 A 
HETATM   26  C3    D T1001       1.137  -6.795  12.054  1.00 37.95    -0.002 A 
HETATM   27  C4    D T1001      -0.159  -7.465  12.096  1.00 38.26     0.015 A 
HETATM   28  C5    D T1001      -1.362  -6.705  11.682  1.00 37.89     0.070 A 
HETATM   29  C6    D T1001      -1.179  -5.363  11.265  1.00 37.86     0.008 A 
BRANCH  27  30
HETATM   30  C11   D T1001      -0.147  -8.947  12.585  1.00 37.72     0.277 C 
BRANCH  30  31
HETATM   31  N12   D T1001       0.578  -9.974  11.789  1.00 39.41     0.143 N 
HETATM   32  C13   D T1001      -0.249 -11.061  11.232  1.00 38.92     0.253 C 
HETATM   33  C14   D T1001       0.461 -12.353  11.653  1.00 38.65     0.071 C 
HETATM   34  C15   D T1001       1.926 -11.858  11.723  1.00 38.81     0.255 C 
HETATM   35  C16   D T1001       1.709 -10.601  12.525  1.00 38.57     0.284 C 
BRANCH  34  36
HETATM   36  N17   D T1001       2.945 -12.825  12.333  1.00 39.14     0.141 N 
HETATM   37  C18   D T1001       4.335 -12.334  12.429  1.00 39.06     0.285 C 
HETATM   38  C19   D T1001       2.451 -13.310  13.673  1.00 38.52     0.285 C 
ENDBRANCH  34  36
ENDBRANCH  30  31
ENDBRANCH  27  30
BRANCH  28  39
HETATM   39  C7    D T1001      -2.831  -7.265  11.669  1.00 38.38     0.418 C 
HETATM   40  F8    D T1001      -3.089  -7.876  12.858  1.00 39.18    -0.166 F 
HETATM   41  F9    D T1001      -2.996  -8.165  10.667  1.00 37.72    -0.166 F 
HETATM   42  F10   D T1001      -3.773  -6.274  11.558  1.00 39.32    -0.166 F 
ENDBRANCH  28  39
ENDBRANCH   2  24
TORSDOF 8
ENDMDL
