MODEL 1
REMARK VINA RESULT:      -6.1      0.000      0.000
REMARK  2 active torsions:
REMARK  status: ('A' for Active; 'I' for Inactive)
REMARK    1  A    between atoms: C5_4  and  O7_13 
REMARK    2  A    between atoms: C8_10  and  O7_13 
ROOT
HETATM    1  O7    D T 600      21.425 -10.294 -14.936  1.00 18.03    -0.309 OA
ENDROOT
BRANCH   1   2
HETATM    2  C5    D T 600      21.144 -11.661 -14.771  1.00 18.33     0.099 A 
HETATM    3  C6    D T 600      21.710 -12.473 -13.669  1.00 17.53     0.132 A 
HETATM    4  C1    D T 600      21.394 -13.894 -13.541  1.00 16.53     0.089 A 
HETATM    5  O17   D T 600      22.553 -11.907 -12.736  1.00 20.49    -0.193 OA
HETATM    6  C2    D T 600      20.511 -14.492 -14.521  1.00 14.58     0.020 A 
HETATM    7  C3    D T 600      19.950 -13.698 -15.609  1.00 14.14     0.041 A 
HETATM    8 CL14   D T 600      20.101 -16.103 -14.435  1.00  1.00    -0.091 Cl
HETATM    9  C4    D T 600      20.268 -12.283 -15.730  1.00 16.13     0.059 A 
ENDBRANCH   1   2
BRANCH   1  10
HETATM   10  C8    D T 600      21.027  -9.291 -13.977  1.00 16.10     0.106 A 
HETATM   11  C9    D T 600      22.120  -8.260 -13.587  1.00 14.15     0.063 A 
HETATM   12  C10   D T 600      21.809  -7.225 -12.616  1.00 14.71     0.078 A 
HETATM   13 CL16   D T 600      23.652  -8.322 -14.251  1.00  1.00    -0.085 Cl
HETATM   14  C11   D T 600      20.410  -7.215 -12.036  1.00 14.35     0.041 A 
HETATM   15  C12   D T 600      19.468  -8.177 -12.441  1.00 18.52     0.009 A 
HETATM   16 CL15   D T 600      20.075  -6.016 -10.903  1.00  1.63    -0.087 Cl
HETATM   17  C13   D T 600      19.695  -9.168 -13.340  1.00 15.99     0.026 A 
ENDBRANCH   1  10
TORSDOF 2
ENDMDL
MODEL 2
REMARK VINA RESULT:      -6.0     16.542     18.509
REMARK  2 active torsions:
REMARK  status: ('A' for Active; 'I' for Inactive)
REMARK    1  A    between atoms: C5_4  and  O7_13 
REMARK    2  A    between atoms: C8_10  and  O7_13 
ROOT
HETATM    1  O7    D T 600      22.583   3.948  -4.267  1.00 18.03    -0.309 OA
ENDROOT
BRANCH   1   2
HETATM    2  C5    D T 600      21.233   3.984  -4.656  1.00 18.33     0.099 A 
HETATM    3  C6    D T 600      20.484   5.246  -4.853  1.00 17.53     0.132 A 
HETATM    4  C1    D T 600      19.078   5.233  -5.251  1.00 16.53     0.089 A 
HETATM    5  O17   D T 600      21.095   6.467  -4.662  1.00 20.49    -0.193 OA
HETATM    6  C2    D T 600      18.431   3.953  -5.449  1.00 14.58     0.020 A 
HETATM    7  C3    D T 600      19.163   2.706  -5.257  1.00 14.14     0.041 A 
HETATM    8 CL14   D T 600      16.834   3.861  -5.910  1.00  1.00    -0.091 Cl
HETATM    9  C4    D T 600      20.563   2.724  -4.861  1.00 16.13     0.059 A 
ENDBRANCH   1   2
BRANCH   1  10
HETATM   10  C8    D T 600      23.007   4.113  -2.897  1.00 16.10     0.106 A 
HETATM   11  C9    D T 600      24.417   3.560  -2.557  1.00 14.15     0.063 A 
HETATM   12  C10   D T 600      24.917   3.672  -1.197  1.00 14.71     0.078 A 
HETATM   13 CL16   D T 600      25.369   2.828  -3.720  1.00  1.00    -0.085 Cl
HETATM   14  C11   D T 600      24.015   4.335  -0.178  1.00 14.35     0.041 A 
HETATM   15  C12   D T 600      22.751   4.820  -0.558  1.00 18.52     0.009 A 
HETATM   16 CL15   D T 600      24.609   4.441   1.393  1.00  1.63    -0.087 Cl
HETATM   17  C13   D T 600      22.226   4.745  -1.808  1.00 15.99     0.026 A 
ENDBRANCH   1  10
TORSDOF 2
ENDMDL
MODEL 3
REMARK VINA RESULT:      -5.7     16.640     18.871
REMARK  2 active torsions:
REMARK  status: ('A' for Active; 'I' for Inactive)
REMARK    1  A    between atoms: C5_4  and  O7_13 
REMARK    2  A    between atoms: C8_10  and  O7_13 
ROOT
HETATM    1  O7    D T 600      21.346   3.997  -4.839  1.00 18.03    -0.309 OA
ENDROOT
BRANCH   1   2
HETATM    2  C5    D T 600      21.898   4.517  -3.656  1.00 18.33     0.099 A 
HETATM    3  C6    D T 600      22.711   5.755  -3.622  1.00 17.53     0.132 A 
HETATM    4  C1    D T 600      23.271   6.254  -2.368  1.00 16.53     0.089 A 
HETATM    5  O17   D T 600      22.962   6.467  -4.776  1.00 20.49    -0.193 OA
HETATM    6  C2    D T 600      23.013   5.508  -1.155  1.00 14.58     0.020 A 
HETATM    7  C3    D T 600      22.214   4.287  -1.181  1.00 14.14     0.041 A 
HETATM    8 CL14   D T 600      23.613   6.019   0.311  1.00  1.00    -0.091 Cl
HETATM    9  C4    D T 600      21.657   3.796  -2.432  1.00 16.13     0.059 A 
ENDBRANCH   1   2
BRANCH   1  10
HETATM   10  C8    D T 600      19.988   4.265  -5.251  1.00 16.10     0.106 A 
HETATM   11  C9    D T 600      18.974   3.113  -5.020  1.00 14.15     0.063 A 
HETATM   12  C10   D T 600      17.589   3.292  -5.420  1.00 14.71     0.078 A 
HETATM   13 CL16   D T 600      19.444   1.664  -4.332  1.00  1.00    -0.085 Cl
HETATM   14  C11   D T 600      17.213   4.618  -6.046  1.00 14.35     0.041 A 
HETATM   15  C12   D T 600      18.183   5.621  -6.219  1.00 18.52     0.009 A 
HETATM   16 CL15   D T 600      15.606   4.799  -6.514  1.00  1.63    -0.087 Cl
HETATM   17  C13   D T 600      19.491   5.516  -5.870  1.00 15.99     0.026 A 
ENDBRANCH   1  10
TORSDOF 2
ENDMDL
MODEL 4
REMARK VINA RESULT:      -5.5      1.438      1.903
REMARK  2 active torsions:
REMARK  status: ('A' for Active; 'I' for Inactive)
REMARK    1  A    between atoms: C5_4  and  O7_13 
REMARK    2  A    between atoms: C8_10  and  O7_13 
ROOT
HETATM    1  O7    D T 600      20.923 -10.678 -14.808  1.00 18.03    -0.309 OA
ENDROOT
BRANCH   1   2
HETATM    2  C5    D T 600      20.185 -11.869 -14.690  1.00 18.33     0.099 A 
HETATM    3  C6    D T 600      20.171 -12.915 -15.737  1.00 17.53     0.132 A 
HETATM    4  C1    D T 600      19.383 -14.135 -15.573  1.00 16.53     0.089 A 
HETATM    5  O17   D T 600      20.901 -12.764 -16.898  1.00 20.49    -0.193 OA
HETATM    6  C2    D T 600      18.612 -14.297 -14.358  1.00 14.58     0.020 A 
HETATM    7  C3    D T 600      18.622 -13.269 -13.322  1.00 14.14     0.041 A 
HETATM    8 CL14   D T 600      17.697 -15.662 -14.098  1.00  1.00    -0.091 Cl
HETATM    9  C4    D T 600      19.410 -12.057 -13.490  1.00 16.13     0.059 A 
ENDBRANCH   1   2
BRANCH   1  10
HETATM   10  C8    D T 600      20.743  -9.555 -13.918  1.00 16.10     0.106 A 
HETATM   11  C9    D T 600      22.023  -8.738 -13.596  1.00 14.15     0.063 A 
HETATM   12  C10   D T 600      21.935  -7.600 -12.698  1.00 14.71     0.078 A 
HETATM   13 CL16   D T 600      23.505  -9.148 -14.252  1.00  1.00    -0.085 Cl
HETATM   14  C11   D T 600      20.572  -7.273 -12.124  1.00 14.35     0.041 A 
HETATM   15  C12   D T 600      19.453  -8.052 -12.464  1.00 18.52     0.009 A 
HETATM   16 CL15   D T 600      20.496  -5.959 -11.074  1.00  1.63    -0.087 Cl
HETATM   17  C13   D T 600      19.469  -9.127 -13.294  1.00 15.99     0.026 A 
ENDBRANCH   1  10
TORSDOF 2
ENDMDL
MODEL 5
REMARK VINA RESULT:      -5.5     22.947     24.007
REMARK  2 active torsions:
REMARK  status: ('A' for Active; 'I' for Inactive)
REMARK    1  A    between atoms: C5_4  and  O7_13 
REMARK    2  A    between atoms: C8_10  and  O7_13 
ROOT
HETATM    1  O7    D T 600       8.505 -19.234   4.249  1.00 18.03    -0.309 OA
ENDROOT
BRANCH   1   2
HETATM    2  C5    D T 600       9.778 -19.818   4.365  1.00 18.33     0.099 A 
HETATM    3  C6    D T 600      10.012 -21.116   5.038  1.00 17.53     0.132 A 
HETATM    4  C1    D T 600      11.356 -21.680   5.140  1.00 16.53     0.089 A 
HETATM    5  O17   D T 600       8.965 -21.825   5.588  1.00 20.49    -0.193 OA
HETATM    6  C2    D T 600      12.459 -20.938   4.567  1.00 14.58     0.020 A 
HETATM    7  C3    D T 600      12.236 -19.658   3.903  1.00 14.14     0.041 A 
HETATM    8 CL14   D T 600      14.016 -21.521   4.639  1.00  1.00    -0.091 Cl
HETATM    9  C4    D T 600      10.895 -19.102   3.802  1.00 16.13     0.059 A 
ENDBRANCH   1   2
BRANCH   1  10
HETATM   10  C8    D T 600       8.036 -18.196   5.136  1.00 16.10     0.106 A 
HETATM   11  C9    D T 600       6.728 -17.481   4.705  1.00 14.15     0.063 A 
HETATM   12  C10   D T 600       6.193 -16.414   5.533  1.00 14.71     0.078 A 
HETATM   13 CL16   D T 600       5.927 -17.905   3.300  1.00  1.00    -0.085 Cl
HETATM   14  C11   D T 600       6.959 -16.061   6.791  1.00 14.35     0.041 A 
HETATM   15  C12   D T 600       8.134 -16.756   7.124  1.00 18.52     0.009 A 
HETATM   16 CL15   D T 600       6.328 -14.813   7.728  1.00  1.63    -0.087 Cl
HETATM   17  C13   D T 600       8.686 -17.759   6.394  1.00 15.99     0.026 A 
ENDBRANCH   1  10
TORSDOF 2
ENDMDL
MODEL 6
REMARK VINA RESULT:      -5.3      1.681      2.582
REMARK  2 active torsions:
REMARK  status: ('A' for Active; 'I' for Inactive)
REMARK    1  A    between atoms: C5_4  and  O7_13 
REMARK    2  A    between atoms: C8_10  and  O7_13 
ROOT
HETATM    1  O7    D T 600      21.194 -10.426 -15.331  1.00 18.03    -0.309 OA
ENDROOT
BRANCH   1   2
HETATM    2  C5    D T 600      21.270 -11.775 -14.943  1.00 18.33     0.099 A 
HETATM    3  C6    D T 600      20.913 -12.894 -15.844  1.00 17.53     0.132 A 
HETATM    4  C1    D T 600      21.001 -14.282 -15.394  1.00 16.53     0.089 A 
HETATM    5  O17   D T 600      20.484 -12.655 -17.133  1.00 20.49    -0.193 OA
HETATM    6  C2    D T 600      21.447 -14.538 -14.041  1.00 14.58     0.020 A 
HETATM    7  C3    D T 600      21.801 -13.440 -13.147  1.00 14.14     0.041 A 
HETATM    8 CL14   D T 600      21.579 -16.092 -13.460  1.00  1.00    -0.091 Cl
HETATM    9  C4    D T 600      21.712 -12.060 -13.602  1.00 16.13     0.059 A 
ENDBRANCH   1   2
BRANCH   1  10
HETATM   10  C8    D T 600      21.370  -9.334 -14.402  1.00 16.10     0.106 A 
HETATM   11  C9    D T 600      20.226  -9.135 -13.372  1.00 14.15     0.063 A 
HETATM   12  C10   D T 600      20.315  -8.050 -12.410  1.00 14.71     0.078 A 
HETATM   13 CL16   D T 600      18.887 -10.135 -13.354  1.00  1.00    -0.085 Cl
HETATM   14  C11   D T 600      21.544  -7.167 -12.472  1.00 14.35     0.041 A 
HETATM   15  C12   D T 600      22.545  -7.410 -13.428  1.00 18.52     0.009 A 
HETATM   16 CL15   D T 600      21.619  -5.908 -11.357  1.00  1.63    -0.087 Cl
HETATM   17  C13   D T 600      22.521  -8.403 -14.353  1.00 15.99     0.026 A 
ENDBRANCH   1  10
TORSDOF 2
ENDMDL
MODEL 7
REMARK VINA RESULT:      -5.2     17.420     20.134
REMARK  2 active torsions:
REMARK  status: ('A' for Active; 'I' for Inactive)
REMARK    1  A    between atoms: C5_4  and  O7_13 
REMARK    2  A    between atoms: C8_10  and  O7_13 
ROOT
HETATM    1  O7    D T 600      23.678   5.988  -2.342  1.00 18.03    -0.309 OA
ENDROOT
BRANCH   1   2
HETATM    2  C5    D T 600      23.984   5.533  -1.048  1.00 18.33     0.099 A 
HETATM    3  C6    D T 600      25.346   5.120  -0.640  1.00 17.53     0.132 A 
HETATM    4  C1    D T 600      25.615   4.647   0.717  1.00 16.53     0.089 A 
HETATM    5  O17   D T 600      26.397   5.170  -1.531  1.00 20.49    -0.193 OA
HETATM    6  C2    D T 600      24.515   4.589   1.655  1.00 14.58     0.020 A 
HETATM    7  C3    D T 600      23.170   4.994   1.260  1.00 14.14     0.041 A 
HETATM    8 CL14   D T 600      24.746   4.068   3.219  1.00  1.00    -0.091 Cl
HETATM    9  C4    D T 600      22.908   5.466  -0.092  1.00 16.13     0.059 A 
ENDBRANCH   1   2
BRANCH   1  10
HETATM   10  C8    D T 600      22.622   5.415  -3.143  1.00 16.10     0.106 A 
HETATM   11  C9    D T 600      22.989   4.118  -3.913  1.00 14.15     0.063 A 
HETATM   12  C10   D T 600      21.990   3.483  -4.755  1.00 14.71     0.078 A 
HETATM   13 CL16   D T 600      24.514   3.442  -3.803  1.00  1.00    -0.085 Cl
HETATM   14  C11   D T 600      20.627   4.137  -4.829  1.00 14.35     0.041 A 
HETATM   15  C12   D T 600      20.362   5.309  -4.099  1.00 18.52     0.009 A 
HETATM   16 CL15   D T 600      19.489   3.392  -5.822  1.00  1.63    -0.087 Cl
HETATM   17  C13   D T 600      21.250   5.951  -3.297  1.00 15.99     0.026 A 
ENDBRANCH   1  10
TORSDOF 2
ENDMDL
MODEL 8
REMARK VINA RESULT:      -5.0      6.565      8.624
REMARK  2 active torsions:
REMARK  status: ('A' for Active; 'I' for Inactive)
REMARK    1  A    between atoms: C5_4  and  O7_13 
REMARK    2  A    between atoms: C8_10  and  O7_13 
ROOT
HETATM    1  O7    D T 600      15.835 -15.883 -11.900  1.00 18.03    -0.309 OA
ENDROOT
BRANCH   1   2
HETATM    2  C5    D T 600      14.663 -15.312 -11.375  1.00 18.33     0.099 A 
HETATM    3  C6    D T 600      14.659 -14.430 -10.186  1.00 17.53     0.132 A 
HETATM    4  C1    D T 600      13.413 -13.864  -9.672  1.00 16.53     0.089 A 
HETATM    5  O17   D T 600      15.832 -14.121  -9.530  1.00 20.49    -0.193 OA
HETATM    6  C2    D T 600      12.178 -14.189 -10.354  1.00 14.58     0.020 A 
HETATM    7  C3    D T 600      12.175 -15.058 -11.526  1.00 14.14     0.041 A 
HETATM    8 CL14   D T 600      10.722 -13.576  -9.830  1.00  1.00    -0.091 Cl
HETATM    9  C4    D T 600      13.419 -15.617 -12.034  1.00 16.13     0.059 A 
ENDBRANCH   1   2
BRANCH   1  10
HETATM   10  C8    D T 600      16.681 -15.198 -12.849  1.00 16.10     0.106 A 
HETATM   11  C9    D T 600      16.497 -15.609 -14.334  1.00 14.15     0.063 A 
HETATM   12  C10   D T 600      17.319 -14.980 -15.354  1.00 14.71     0.078 A 
HETATM   13 CL16   D T 600      15.382 -16.769 -14.785  1.00  1.00    -0.085 Cl
HETATM   14  C11   D T 600      18.320 -13.941 -14.895  1.00 14.35     0.041 A 
HETATM   15  C12   D T 600      18.428 -13.613 -13.533  1.00 18.52     0.009 A 
HETATM   16 CL15   D T 600      19.271 -13.236 -16.092  1.00  1.63    -0.087 Cl
HETATM   17  C13   D T 600      17.694 -14.164 -12.533  1.00 15.99     0.026 A 
ENDBRANCH   1  10
TORSDOF 2
ENDMDL
MODEL 9
REMARK VINA RESULT:      -4.9      7.062      8.570
REMARK  2 active torsions:
REMARK  status: ('A' for Active; 'I' for Inactive)
REMARK    1  A    between atoms: C5_4  and  O7_13 
REMARK    2  A    between atoms: C8_10  and  O7_13 
ROOT
HETATM    1  O7    D T 600      15.409 -15.933 -11.828  1.00 18.03    -0.309 OA
ENDROOT
BRANCH   1   2
HETATM    2  C5    D T 600      16.222 -15.384 -12.835  1.00 18.33     0.099 A 
HETATM    3  C6    D T 600      16.014 -15.656 -14.275  1.00 17.53     0.132 A 
HETATM    4  C1    D T 600      16.889 -15.068 -15.287  1.00 16.53     0.089 A 
HETATM    5  O17   D T 600      14.988 -16.476 -14.699  1.00 20.49    -0.193 OA
HETATM    6  C2    D T 600      17.968 -14.210 -14.847  1.00 14.58     0.020 A 
HETATM    7  C3    D T 600      18.179 -13.938 -13.428  1.00 14.14     0.041 A 
HETATM    8 CL14   D T 600      19.001 -13.499 -15.941  1.00  1.00    -0.091 Cl
HETATM    9  C4    D T 600      17.303 -14.526 -12.426  1.00 16.13     0.059 A 
ENDBRANCH   1   2
BRANCH   1  10
HETATM   10  C8    D T 600      14.146 -15.352 -11.438  1.00 16.10     0.106 A 
HETATM   11  C9    D T 600      14.182 -14.439 -10.183  1.00 14.15     0.063 A 
HETATM   12  C10   D T 600      12.952 -13.826  -9.713  1.00 14.71     0.078 A 
HETATM   13 CL16   D T 600      15.605 -14.157  -9.353  1.00  1.00    -0.085 Cl
HETATM   14  C11   D T 600      11.688 -14.118 -10.494  1.00 14.35     0.041 A 
HETATM   15  C12   D T 600      11.730 -14.949 -11.626  1.00 18.52     0.009 A 
HETATM   16 CL15   D T 600      10.273 -13.407  -9.923  1.00  1.63    -0.087 Cl
HETATM   17  C13   D T 600      12.844 -15.554 -12.115  1.00 15.99     0.026 A 
ENDBRANCH   1  10
TORSDOF 2
ENDMDL
