MODEL 1
REMARK VINA RESULT:   -11.338      0.000      0.000
REMARK INTER + INTRA:         -13.173
REMARK INTER:                 -13.326
REMARK INTRA:                   0.154
REMARK UNBOUND:                 0.154
REMARK  3 active torsions:
REMARK  status: ('A' for Active; 'I' for Inactive)
REMARK    1  A    between atoms: C4_6  and  C5_7 
REMARK    2  A    between atoms: C5_7  and  C6_8 
REMARK    3  A    between atoms: C5_7  and  C12_16 
ROOT
HETATM    1  C12   D T 441      -3.583  -0.531  10.516  1.00 19.85     0.021 A 
HETATM    2  C13   D T 441      -2.517  -1.457  10.705  1.00 19.83    -0.000 A 
HETATM    3  C14   D T 441      -2.766  -2.854  10.806  1.00 20.16     0.016 A 
HETATM    4  C15   D T 441      -4.902  -1.033  10.392  1.00 20.41    -0.000 A 
HETATM    5  C16   D T 441      -5.157  -2.411  10.492  1.00 20.73     0.017 A 
HETATM    6  C17   D T 441      -4.105  -3.325  10.711  1.00 21.09     0.062 A 
HETATM    7  N4    D T 441      -4.381  -4.718  10.899  1.00 20.91    -0.294 N 
HETATM    8  C18   D T 441      -5.774  -5.242  10.794  1.00 20.23     0.134 C 
HETATM    9  C19   D T 441      -3.330  -5.618  11.181  1.00 22.47     0.261 A 
HETATM   10  O1    D T 441      -3.571  -6.806  11.391  1.00 22.92    -0.267 OA
HETATM   11  C20   D T 441      -2.013  -5.153  11.257  1.00 22.04     0.061 A 
HETATM   12  C21   D T 441      -1.708  -3.788  11.064  1.00 20.64     0.006 A 
HETATM   13  C22   D T 441      -0.339  -3.411  11.034  1.00 21.65     0.001 A 
HETATM   14  C23   D T 441       0.186  -2.462  11.942  1.00 20.99     0.011 A 
HETATM   15  C24   D T 441       1.565  -2.155  11.918  1.00 22.35     0.058 A 
HETATM   16 CL2    D T 441       2.236  -0.987  13.066  1.00 26.30    -0.082 Cl
HETATM   17  C25   D T 441       2.421  -2.786  10.996  1.00 21.98     0.011 A 
HETATM   18  C26   D T 441       1.905  -3.728  10.094  1.00 20.12     0.001 A 
HETATM   19  C27   D T 441       0.534  -4.039  10.112  1.00 21.15     0.000 A 
ENDROOT
BRANCH   1  20
HETATM   20  C5    D T 441      -3.372   0.894  10.626  1.00 20.67     0.342 C 
HETATM   21  N3    D T 441      -4.027   1.243  11.903  1.00 22.80     0.629 N 
BRANCH  20  22
HETATM   22  C4    D T 441      -1.988   1.287  10.803  1.00 19.37     0.100 A 
HETATM   23  N1    D T 441      -1.078   1.238   9.850  1.00 19.33    -0.308 N 
HETATM   24  C1    D T 441      -1.267   0.857   8.425  1.00 19.43     0.132 C 
HETATM   25  C2    D T 441       0.083   1.585  10.403  1.00 17.45     0.178 A 
HETATM   26  N2    D T 441      -0.157   1.842  11.716  1.00 18.66    -0.223 NA
HETATM   27  C3    D T 441      -1.469   1.653  11.968  1.00 16.78     0.116 A 
ENDBRANCH  20  22
BRANCH  20  28
HETATM   28  C6    D T 441      -4.033   1.662   9.614  1.00 20.70     0.021 A 
HETATM   29  C7    D T 441      -4.055   3.077   9.698  1.00 21.08    -0.001 A 
HETATM   30  C8    D T 441      -4.648   3.846   8.687  1.00 21.56     0.011 A 
HETATM   31  C9    D T 441      -5.226   3.221   7.574  1.00 22.96     0.058 A 
HETATM   32 CL1    D T 441      -5.932   4.219   6.281  1.00 26.89    -0.082 Cl
HETATM   33  C10   D T 441      -5.222   1.814   7.471  1.00 22.08     0.011 A 
HETATM   34  C11   D T 441      -4.626   1.035   8.488  1.00 21.58    -0.001 A 
ENDBRANCH  20  28
ENDBRANCH   1  20
TORSDOF 3
ENDMDL
MODEL 2
REMARK VINA RESULT:   -11.137      2.516      5.611
REMARK INTER + INTRA:         -12.936
REMARK INTER:                 -12.737
REMARK INTRA:                  -0.199
REMARK UNBOUND:                 0.154
REMARK  3 active torsions:
REMARK  status: ('A' for Active; 'I' for Inactive)
REMARK    1  A    between atoms: C4_6  and  C5_7 
REMARK    2  A    between atoms: C5_7  and  C6_8 
REMARK    3  A    between atoms: C5_7  and  C12_16 
ROOT
HETATM    1  C12   D T 441      -0.120  -2.770  11.524  1.00 19.85     0.021 A 
HETATM    2  C13   D T 441      -1.361  -2.137  11.231  1.00 19.83    -0.000 A 
HETATM    3  C14   D T 441      -2.558  -2.892  11.096  1.00 20.16     0.016 A 
HETATM    4  C15   D T 441      -0.105  -4.174  11.717  1.00 20.41    -0.000 A 
HETATM    5  C16   D T 441      -1.282  -4.929  11.584  1.00 20.73     0.017 A 
HETATM    6  C17   D T 441      -2.506  -4.305  11.262  1.00 21.09     0.062 A 
HETATM    7  N4    D T 441      -3.684  -5.088  11.042  1.00 20.91    -0.294 N 
HETATM    8  C18   D T 441      -3.661  -6.570  11.220  1.00 20.23     0.134 C 
HETATM    9  C19   D T 441      -4.891  -4.463  10.658  1.00 22.47     0.261 A 
HETATM   10  O1    D T 441      -5.891  -5.140  10.421  1.00 22.92    -0.267 OA
HETATM   11  C20   D T 441      -4.942  -3.073  10.512  1.00 22.04     0.061 A 
HETATM   12  C21   D T 441      -3.801  -2.273  10.734  1.00 20.64     0.006 A 
HETATM   13  C22   D T 441      -3.959  -0.862  10.686  1.00 21.65     0.001 A 
HETATM   14  C23   D T 441      -3.220  -0.066   9.781  1.00 20.99     0.011 A 
HETATM   15  C24   D T 441      -3.447   1.327   9.725  1.00 22.35     0.058 A 
HETATM   16 CL2    D T 441      -2.544   2.329   8.579  1.00 26.30    -0.082 Cl
HETATM   17  C25   D T 441      -4.402   1.931  10.564  1.00 21.98     0.011 A 
HETATM   18  C26   D T 441      -5.138   1.144  11.463  1.00 20.12     0.001 A 
HETATM   19  C27   D T 441      -4.918  -0.243  11.525  1.00 21.15     0.000 A 
ENDROOT
BRANCH   1  20
HETATM   20  C5    D T 441       1.130  -2.049  11.453  1.00 20.67     0.342 C 
HETATM   21  N3    D T 441       1.691  -2.194  12.812  1.00 22.80     0.629 N 
BRANCH  20  22
HETATM   22  C4    D T 441       2.122  -2.646  10.581  1.00 19.37     0.100 A 
HETATM   23  N1    D T 441       3.413  -2.380  10.638  1.00 19.33    -0.308 N 
HETATM   24  C1    D T 441       4.123  -1.506  11.609  1.00 19.43     0.132 C 
HETATM   25  C2    D T 441       3.990  -3.037   9.634  1.00 17.45     0.178 A 
HETATM   26  N2    D T 441       3.008  -3.704   8.972  1.00 18.66    -0.223 NA
HETATM   27  C3    D T 441       1.825  -3.455   9.572  1.00 16.78     0.116 A 
ENDBRANCH  20  22
BRANCH  20  28
HETATM   28  C6    D T 441       0.981  -0.642  11.230  1.00 20.70     0.021 A 
HETATM   29  C7    D T 441       0.838  -0.145   9.910  1.00 21.08    -0.001 A 
HETATM   30  C8    D T 441       0.633   1.222   9.677  1.00 21.56     0.011 A 
HETATM   31  C9    D T 441       0.566   2.117  10.753  1.00 22.96     0.058 A 
HETATM   32 CL1    D T 441       0.260   3.842  10.437  1.00 26.89    -0.082 Cl
HETATM   33  C10   D T 441       0.712   1.647  12.075  1.00 22.08     0.011 A 
HETATM   34  C11   D T 441       0.919   0.269  12.314  1.00 21.58    -0.001 A 
ENDBRANCH  20  28
ENDBRANCH   1  20
TORSDOF 3
ENDMDL
MODEL 3
REMARK VINA RESULT:   -10.843      2.438      6.674
REMARK INTER + INTRA:         -12.590
REMARK INTER:                 -12.683
REMARK INTRA:                   0.093
REMARK UNBOUND:                 0.154
REMARK  3 active torsions:
REMARK  status: ('A' for Active; 'I' for Inactive)
REMARK    1  A    between atoms: C4_6  and  C5_7 
REMARK    2  A    between atoms: C5_7  and  C6_8 
REMARK    3  A    between atoms: C5_7  and  C12_16 
ROOT
HETATM    1  C12   D T 441      -0.272  -2.955  10.915  1.00 19.85     0.021 A 
HETATM    2  C13   D T 441      -1.546  -2.324  10.820  1.00 19.83    -0.000 A 
HETATM    3  C14   D T 441      -2.748  -3.082  10.889  1.00 20.16     0.016 A 
HETATM    4  C15   D T 441      -0.224  -4.357  11.117  1.00 20.41    -0.000 A 
HETATM    5  C16   D T 441      -1.405  -5.113  11.184  1.00 20.73     0.017 A 
HETATM    6  C17   D T 441      -2.666  -4.492  11.060  1.00 21.09     0.062 A 
HETATM    7  N4    D T 441      -3.863  -5.278  11.042  1.00 20.91    -0.294 N 
HETATM    8  C18   D T 441      -3.809  -6.758  11.228  1.00 20.23     0.134 C 
HETATM    9  C19   D T 441      -5.117  -4.657  10.852  1.00 22.47     0.261 A 
HETATM   10  O1    D T 441      -6.142  -5.336  10.788  1.00 22.92    -0.267 OA
HETATM   11  C20   D T 441      -5.194  -3.269  10.703  1.00 22.04     0.061 A 
HETATM   12  C21   D T 441      -4.033  -2.466  10.728  1.00 20.64     0.006 A 
HETATM   13  C22   D T 441      -4.200  -1.056  10.692  1.00 21.65     0.001 A 
HETATM   14  C23   D T 441      -3.620  -0.269   9.671  1.00 20.99     0.011 A 
HETATM   15  C24   D T 441      -3.855   1.124   9.638  1.00 22.35     0.058 A 
HETATM   16 CL2    D T 441      -3.153   2.114   8.351  1.00 26.30    -0.082 Cl
HETATM   17  C25   D T 441      -4.662   1.736  10.615  1.00 21.98     0.011 A 
HETATM   18  C26   D T 441      -5.241   0.959  11.630  1.00 20.12     0.001 A 
HETATM   19  C27   D T 441      -5.011  -0.428  11.670  1.00 21.15     0.000 A 
ENDROOT
BRANCH   1  20
HETATM   20  C5    D T 441       0.948  -2.234  10.634  1.00 20.67     0.342 C 
HETATM   21  N3    D T 441       0.686  -1.608   9.322  1.00 22.80     0.629 N 
BRANCH  20  22
HETATM   22  C4    D T 441       1.211  -1.122  11.525  1.00 19.37     0.100 A 
HETATM   23  N1    D T 441       2.052  -0.142  11.257  1.00 19.33    -0.308 N 
HETATM   24  C1    D T 441       2.830   0.078  10.009  1.00 19.43     0.132 C 
HETATM   25  C2    D T 441       2.098   0.636  12.336  1.00 17.45     0.178 A 
HETATM   26  N2    D T 441       1.263   0.094  13.261  1.00 18.66    -0.223 NA
HETATM   27  C3    D T 441       0.701  -1.020  12.746  1.00 16.78     0.116 A 
ENDBRANCH  20  22
BRANCH  20  28
HETATM   28  C6    D T 441       2.095  -3.074  10.455  1.00 20.70     0.021 A 
HETATM   29  C7    D T 441       2.899  -3.423  11.569  1.00 21.08    -0.001 A 
HETATM   30  C8    D T 441       3.990  -4.291  11.420  1.00 21.56     0.011 A 
HETATM   31  C9    D T 441       4.299  -4.826  10.163  1.00 22.96     0.058 A 
HETATM   32 CL1    D T 441       5.661  -5.961  10.007  1.00 26.89    -0.082 Cl
HETATM   33  C10   D T 441       3.517  -4.488   9.039  1.00 22.08     0.011 A 
HETATM   34  C11   D T 441       2.416  -3.614   9.183  1.00 21.58    -0.001 A 
ENDBRANCH  20  28
ENDBRANCH   1  20
TORSDOF 3
ENDMDL
MODEL 4
REMARK VINA RESULT:    -9.766      2.208      6.436
REMARK INTER + INTRA:         -11.325
REMARK INTER:                 -11.422
REMARK INTRA:                   0.097
REMARK UNBOUND:                 0.154
REMARK  3 active torsions:
REMARK  status: ('A' for Active; 'I' for Inactive)
REMARK    1  A    between atoms: C4_6  and  C5_7 
REMARK    2  A    between atoms: C5_7  and  C6_8 
REMARK    3  A    between atoms: C5_7  and  C12_16 
ROOT
HETATM    1  C12   D T 441       0.456  -1.421  10.872  1.00 19.85     0.021 A 
HETATM    2  C13   D T 441      -0.964  -1.403  10.764  1.00 19.83    -0.000 A 
HETATM    3  C14   D T 441      -1.731  -2.583  10.968  1.00 20.16     0.016 A 
HETATM    4  C15   D T 441       1.094  -2.636  11.227  1.00 20.41    -0.000 A 
HETATM    5  C16   D T 441       0.345  -3.806  11.428  1.00 20.73     0.017 A 
HETATM    6  C17   D T 441      -1.060  -3.796  11.291  1.00 21.09     0.062 A 
HETATM    7  N4    D T 441      -1.809  -5.010  11.412  1.00 20.91    -0.294 N 
HETATM    8  C18   D T 441      -1.134  -6.295  11.759  1.00 20.23     0.134 C 
HETATM    9  C19   D T 441      -3.207  -5.004  11.209  1.00 22.47     0.261 A 
HETATM   10  O1    D T 441      -3.846  -6.055  11.265  1.00 22.92    -0.267 OA
HETATM   11  C20   D T 441      -3.865  -3.807  10.909  1.00 22.04     0.061 A 
HETATM   12  C21   D T 441      -3.155  -2.592  10.795  1.00 20.64     0.006 A 
HETATM   13  C22   D T 441      -3.904  -1.400  10.610  1.00 21.65     0.001 A 
HETATM   14  C23   D T 441      -3.704  -0.569   9.483  1.00 20.99     0.011 A 
HETATM   15  C24   D T 441      -4.508   0.579   9.306  1.00 22.35     0.058 A 
HETATM   16 CL2    D T 441      -4.282   1.612   7.887  1.00 26.30    -0.082 Cl
HETATM   17  C25   D T 441      -5.507   0.904  10.243  1.00 21.98     0.011 A 
HETATM   18  C26   D T 441      -5.709   0.082  11.362  1.00 20.12     0.001 A 
HETATM   19  C27   D T 441      -4.913  -1.062  11.546  1.00 21.15     0.000 A 
ENDROOT
BRANCH   1  20
HETATM   20  C5    D T 441       1.258  -0.291  10.461  1.00 20.67     0.342 C 
HETATM   21  N3    D T 441       0.873  -0.090   9.049  1.00 22.80     0.629 N 
BRANCH  20  22
HETATM   22  C4    D T 441       0.921   0.958  11.115  1.00 19.37     0.100 A 
HETATM   23  N1    D T 441       0.728   1.084  12.413  1.00 19.33    -0.308 N 
HETATM   24  C1    D T 441       0.874   0.042  13.464  1.00 19.43     0.132 C 
HETATM   25  C2    D T 441       0.350   2.343  12.630  1.00 17.45     0.178 A 
HETATM   26  N2    D T 441       0.321   2.968  11.423  1.00 18.66    -0.223 NA
HETATM   27  C3    D T 441       0.683   2.090  10.464  1.00 16.78     0.116 A 
ENDBRANCH  20  22
BRANCH  20  28
HETATM   28  C6    D T 441       2.667  -0.544  10.459  1.00 20.70     0.021 A 
HETATM   29  C7    D T 441       3.458  -0.161  11.572  1.00 21.08    -0.001 A 
HETATM   30  C8    D T 441       4.829  -0.454  11.611  1.00 21.56     0.011 A 
HETATM   31  C9    D T 441       5.435  -1.132  10.546  1.00 22.96     0.058 A 
HETATM   32 CL1    D T 441       7.167  -1.533  10.638  1.00 26.89    -0.082 Cl
HETATM   33  C10   D T 441       4.670  -1.518   9.425  1.00 22.08     0.011 A 
HETATM   34  C11   D T 441       3.288  -1.225   9.381  1.00 21.58    -0.001 A 
ENDBRANCH  20  28
ENDBRANCH   1  20
TORSDOF 3
ENDMDL
MODEL 5
REMARK VINA RESULT:    -9.568      3.137      6.883
REMARK INTER + INTRA:         -11.092
REMARK INTER:                 -11.832
REMARK INTRA:                   0.740
REMARK UNBOUND:                 0.154
REMARK  3 active torsions:
REMARK  status: ('A' for Active; 'I' for Inactive)
REMARK    1  A    between atoms: C4_6  and  C5_7 
REMARK    2  A    between atoms: C5_7  and  C6_8 
REMARK    3  A    between atoms: C5_7  and  C12_16 
ROOT
HETATM    1  C12   D T 441      -1.986  -2.478  10.943  1.00 19.85     0.021 A 
HETATM    2  C13   D T 441      -1.418  -1.261  10.468  1.00 19.83    -0.000 A 
HETATM    3  C14   D T 441      -2.236  -0.230   9.928  1.00 20.16     0.016 A 
HETATM    4  C15   D T 441      -3.395  -2.629  10.902  1.00 20.41    -0.000 A 
HETATM    5  C16   D T 441      -4.210  -1.617  10.369  1.00 20.73     0.017 A 
HETATM    6  C17   D T 441      -3.645  -0.425   9.870  1.00 21.09     0.062 A 
HETATM    7  N4    D T 441      -4.471   0.566   9.249  1.00 20.91    -0.294 N 
HETATM    8  C18   D T 441      -5.953   0.394   9.182  1.00 20.23     0.134 C 
HETATM    9  C19   D T 441      -3.892   1.728   8.694  1.00 22.47     0.261 A 
HETATM   10  O1    D T 441      -4.596   2.557   8.116  1.00 22.92    -0.267 OA
HETATM   11  C20   D T 441      -2.509   1.924   8.769  1.00 22.04     0.061 A 
HETATM   12  C21   D T 441      -1.669   0.971   9.386  1.00 20.64     0.006 A 
HETATM   13  C22   D T 441      -0.294   1.295   9.532  1.00 21.65     0.001 A 
HETATM   14  C23   D T 441       0.720   0.482   8.973  1.00 20.99     0.011 A 
HETATM   15  C24   D T 441       2.073   0.868   9.092  1.00 22.35     0.058 A 
HETATM   16 CL2    D T 441       3.348  -0.129   8.375  1.00 26.30    -0.082 Cl
HETATM   17  C25   D T 441       2.423   2.053   9.764  1.00 21.98     0.011 A 
HETATM   18  C26   D T 441       1.420   2.863  10.320  1.00 20.12     0.001 A 
HETATM   19  C27   D T 441       0.070   2.486  10.206  1.00 21.15     0.000 A 
ENDROOT
BRANCH   1  20
HETATM   20  C5    D T 441      -1.159  -3.610  11.292  1.00 20.67     0.342 C 
HETATM   21  N3    D T 441      -1.129  -3.574  12.768  1.00 22.80     0.629 N 
BRANCH  20  22
HETATM   22  C4    D T 441      -1.735  -4.900  10.968  1.00 19.37     0.100 A 
HETATM   23  N1    D T 441      -1.139  -6.054  11.198  1.00 19.33    -0.308 N 
HETATM   24  C1    D T 441       0.163  -6.291  11.877  1.00 19.43     0.132 C 
HETATM   25  C2    D T 441      -1.921  -7.003  10.689  1.00 17.45     0.178 A 
HETATM   26  N2    D T 441      -3.003  -6.386  10.144  1.00 18.66    -0.223 NA
HETATM   27  C3    D T 441      -2.883  -5.053  10.322  1.00 16.78     0.116 A 
ENDBRANCH  20  22
BRANCH  20  28
HETATM   28  C6    D T 441       0.202  -3.494  10.861  1.00 20.70     0.021 A 
HETATM   29  C7    D T 441       1.195  -3.034  11.762  1.00 21.08    -0.001 A 
HETATM   30  C8    D T 441       2.540  -2.970  11.374  1.00 21.56     0.011 A 
HETATM   31  C9    D T 441       2.920  -3.364  10.084  1.00 22.96     0.058 A 
HETATM   32 CL1    D T 441       4.640  -3.317   9.628  1.00 26.89    -0.082 Cl
HETATM   33  C10   D T 441       1.950  -3.820   9.168  1.00 22.08     0.011 A 
HETATM   34  C11   D T 441       0.592  -3.886   9.554  1.00 21.58    -0.001 A 
ENDBRANCH  20  28
ENDBRANCH   1  20
TORSDOF 3
ENDMDL
MODEL 6
REMARK VINA RESULT:    -9.381      2.535      4.551
REMARK INTER + INTRA:         -10.872
REMARK INTER:                 -10.917
REMARK INTRA:                   0.044
REMARK UNBOUND:                 0.154
REMARK  3 active torsions:
REMARK  status: ('A' for Active; 'I' for Inactive)
REMARK    1  A    between atoms: C4_6  and  C5_7 
REMARK    2  A    between atoms: C5_7  and  C6_8 
REMARK    3  A    between atoms: C5_7  and  C12_16 
ROOT
HETATM    1  C12   D T 441      -0.009   0.211  11.843  1.00 19.85     0.021 A 
HETATM    2  C13   D T 441      -1.046  -0.698  11.485  1.00 19.83    -0.000 A 
HETATM    3  C14   D T 441      -0.840  -2.105  11.535  1.00 20.16     0.016 A 
HETATM    4  C15   D T 441       1.229  -0.315  12.288  1.00 20.41    -0.000 A 
HETATM    5  C16   D T 441       1.442  -1.703  12.338  1.00 20.73     0.017 A 
HETATM    6  C17   D T 441       0.425  -2.603  11.954  1.00 21.09     0.062 A 
HETATM    7  N4    D T 441       0.677  -4.012  11.925  1.00 20.91    -0.294 N 
HETATM    8  C18   D T 441       1.990  -4.564  12.369  1.00 20.23     0.134 C 
HETATM    9  C19   D T 441      -0.324  -4.903  11.478  1.00 22.47     0.261 A 
HETATM   10  O1    D T 441      -0.092  -6.109  11.406  1.00 22.92    -0.267 OA
HETATM   11  C20   D T 441      -1.572  -4.410  11.083  1.00 22.04     0.061 A 
HETATM   12  C21   D T 441      -1.854  -3.027  11.112  1.00 20.64     0.006 A 
HETATM   13  C22   D T 441      -3.179  -2.613  10.813  1.00 21.65     0.001 A 
HETATM   14  C23   D T 441      -3.453  -1.720   9.751  1.00 20.99     0.011 A 
HETATM   15  C24   D T 441      -4.789  -1.377   9.450  1.00 22.35     0.058 A 
HETATM   16 CL2    D T 441      -5.144  -0.279   8.107  1.00 26.30    -0.082 Cl
HETATM   17  C25   D T 441      -5.852  -1.914  10.199  1.00 21.98     0.011 A 
HETATM   18  C26   D T 441      -5.586  -2.801  11.254  1.00 20.12     0.001 A 
HETATM   19  C27   D T 441      -4.258  -3.147  11.560  1.00 21.15     0.000 A 
ENDROOT
BRANCH   1  20
HETATM   20  C5    D T 441      -0.131   1.629  11.595  1.00 20.67     0.342 C 
HETATM   21  N3    D T 441      -0.239   2.209  12.949  1.00 22.80     0.629 N 
BRANCH  20  22
HETATM   22  C4    D T 441       1.050   2.245  11.024  1.00 19.37     0.100 A 
HETATM   23  N1    D T 441       1.653   1.818   9.932  1.00 19.33    -0.308 N 
HETATM   24  C1    D T 441       1.239   0.705   9.036  1.00 19.43     0.132 C 
HETATM   25  C2    D T 441       2.741   2.567   9.770  1.00 17.45     0.178 A 
HETATM   26  N2    D T 441       2.776   3.456  10.797  1.00 18.66    -0.223 NA
HETATM   27  C3    D T 441       1.704   3.251  11.591  1.00 16.78     0.116 A 
ENDBRANCH  20  22
BRANCH  20  28
HETATM   28  C6    D T 441      -1.329   2.001  10.904  1.00 20.70     0.021 A 
HETATM   29  C7    D T 441      -1.252   2.750   9.703  1.00 21.08    -0.001 A 
HETATM   30  C8    D T 441      -2.412   3.072   8.984  1.00 21.56     0.011 A 
HETATM   31  C9    D T 441      -3.667   2.653   9.447  1.00 22.96     0.058 A 
HETATM   32 CL1    D T 441      -5.120   3.035   8.494  1.00 26.89    -0.082 Cl
HETATM   33  C10   D T 441      -3.769   1.911  10.642  1.00 22.08     0.011 A 
HETATM   34  C11   D T 441      -2.603   1.584  11.370  1.00 21.58    -0.001 A 
ENDBRANCH  20  28
ENDBRANCH   1  20
TORSDOF 3
ENDMDL
MODEL 7
REMARK VINA RESULT:    -9.358      3.352      6.469
REMARK INTER + INTRA:         -10.845
REMARK INTER:                 -10.953
REMARK INTRA:                   0.108
REMARK UNBOUND:                 0.154
REMARK  3 active torsions:
REMARK  status: ('A' for Active; 'I' for Inactive)
REMARK    1  A    between atoms: C4_6  and  C5_7 
REMARK    2  A    between atoms: C5_7  and  C6_8 
REMARK    3  A    between atoms: C5_7  and  C12_16 
ROOT
HETATM    1  C12   D T 441       0.287  -1.721  11.096  1.00 19.85     0.021 A 
HETATM    2  C13   D T 441      -0.746  -2.701  11.060  1.00 19.83    -0.000 A 
HETATM    3  C14   D T 441      -2.114  -2.324  10.954  1.00 20.16     0.016 A 
HETATM    4  C15   D T 441      -0.072  -0.354  10.988  1.00 20.41    -0.000 A 
HETATM    5  C16   D T 441      -1.420   0.027  10.886  1.00 20.73     0.017 A 
HETATM    6  C17   D T 441      -2.445  -0.942  10.881  1.00 21.09     0.062 A 
HETATM    7  N4    D T 441      -3.820  -0.543  10.863  1.00 20.91    -0.294 N 
HETATM    8  C18   D T 441      -4.198   0.898  10.776  1.00 20.23     0.134 C 
HETATM    9  C19   D T 441      -4.842  -1.516  10.924  1.00 22.47     0.261 A 
HETATM   10  O1    D T 441      -6.024  -1.173  10.959  1.00 22.92    -0.267 OA
HETATM   11  C20   D T 441      -4.512  -2.874  10.979  1.00 22.04     0.061 A 
HETATM   12  C21   D T 441      -3.165  -3.299  10.984  1.00 20.64     0.006 A 
HETATM   13  C22   D T 441      -2.909  -4.694  10.918  1.00 21.65     0.001 A 
HETATM   14  C23   D T 441      -2.172  -5.359  11.926  1.00 20.99     0.011 A 
HETATM   15  C24   D T 441      -1.986  -6.757  11.853  1.00 22.35     0.058 A 
HETATM   16 CL2    D T 441      -1.086  -7.601  13.121  1.00 26.30    -0.082 Cl
HETATM   17  C25   D T 441      -2.527  -7.495  10.784  1.00 21.98     0.011 A 
HETATM   18  C26   D T 441      -3.259  -6.841   9.782  1.00 20.12     0.001 A 
HETATM   19  C27   D T 441      -3.449  -5.449   9.848  1.00 21.15     0.000 A 
ENDROOT
BRANCH   1  20
HETATM   20  C5    D T 441       1.651  -2.075  11.416  1.00 20.67     0.342 C 
HETATM   21  N3    D T 441       1.848  -1.506  12.765  1.00 22.80     0.629 N 
BRANCH  20  22
HETATM   22  C4    D T 441       1.883  -3.496  11.579  1.00 19.37     0.100 A 
HETATM   23  N1    D T 441       1.935  -4.356  10.581  1.00 19.33    -0.308 N 
HETATM   24  C1    D T 441       1.846  -4.071   9.124  1.00 19.43     0.132 C 
HETATM   25  C2    D T 441       2.071  -5.567  11.118  1.00 17.45     0.178 A 
HETATM   26  N2    D T 441       2.097  -5.409  12.467  1.00 18.66    -0.223 NA
HETATM   27  C3    D T 441       1.978  -4.097  12.759  1.00 16.78     0.116 A 
ENDBRANCH  20  22
BRANCH  20  28
HETATM   28  C6    D T 441       2.628  -1.454  10.573  1.00 20.70     0.021 A 
HETATM   29  C7    D T 441       3.998  -1.476  10.941  1.00 21.08    -0.001 A 
HETATM   30  C8    D T 441       4.974  -0.924  10.099  1.00 21.56     0.011 A 
HETATM   31  C9    D T 441       4.604  -0.344   8.878  1.00 22.96     0.058 A 
HETATM   32 CL1    D T 441       5.865   0.310   7.805  1.00 26.89    -0.082 Cl
HETATM   33  C10   D T 441       3.248  -0.305   8.494  1.00 22.08     0.011 A 
HETATM   34  C11   D T 441       2.260  -0.859   9.340  1.00 21.58    -0.001 A 
ENDBRANCH  20  28
ENDBRANCH   1  20
TORSDOF 3
ENDMDL
MODEL 8
REMARK VINA RESULT:    -9.353      3.381      6.464
REMARK INTER + INTRA:         -10.839
REMARK INTER:                 -10.898
REMARK INTRA:                   0.058
REMARK UNBOUND:                 0.154
REMARK  3 active torsions:
REMARK  status: ('A' for Active; 'I' for Inactive)
REMARK    1  A    between atoms: C4_6  and  C5_7 
REMARK    2  A    between atoms: C5_7  and  C6_8 
REMARK    3  A    between atoms: C5_7  and  C12_16 
ROOT
HETATM    1  C12   D T 441      -0.307  -0.752  10.122  1.00 19.85     0.021 A 
HETATM    2  C13   D T 441      -1.348  -1.688  10.386  1.00 19.83    -0.000 A 
HETATM    3  C14   D T 441      -2.679  -1.254  10.638  1.00 20.16     0.016 A 
HETATM    4  C15   D T 441      -0.629   0.627  10.080  1.00 20.41    -0.000 A 
HETATM    5  C16   D T 441      -1.940   1.064  10.330  1.00 20.73     0.017 A 
HETATM    6  C17   D T 441      -2.965   0.140  10.622  1.00 21.09     0.062 A 
HETATM    7  N4    D T 441      -4.279   0.596  10.961  1.00 20.91    -0.294 N 
HETATM    8  C18   D T 441      -4.612   2.051  10.943  1.00 20.23     0.134 C 
HETATM    9  C19   D T 441      -5.284  -0.331  11.315  1.00 22.47     0.261 A 
HETATM   10  O1    D T 441      -6.400   0.063  11.655  1.00 22.92    -0.267 OA
HETATM   11  C20   D T 441      -5.002  -1.701  11.314  1.00 22.04     0.061 A 
HETATM   12  C21   D T 441      -3.720  -2.183  10.971  1.00 20.64     0.006 A 
HETATM   13  C22   D T 441      -3.543  -3.588  10.873  1.00 21.65     0.001 A 
HETATM   14  C23   D T 441      -2.590  -4.270  11.665  1.00 20.99     0.011 A 
HETATM   15  C24   D T 441      -2.483  -5.676  11.579  1.00 22.35     0.058 A 
HETATM   16 CL2    D T 441      -1.309  -6.541  12.582  1.00 26.30    -0.082 Cl
HETATM   17  C25   D T 441      -3.317  -6.405  10.711  1.00 21.98     0.011 A 
HETATM   18  C26   D T 441      -4.265  -5.733   9.925  1.00 20.12     0.001 A 
HETATM   19  C27   D T 441      -4.377  -4.333  10.004  1.00 21.15     0.000 A 
ENDROOT
BRANCH   1  20
HETATM   20  C5    D T 441       1.079  -1.160  10.076  1.00 20.67     0.342 C 
HETATM   21  N3    D T 441       1.380  -1.200   8.630  1.00 22.80     0.629 N 
BRANCH  20  22
HETATM   22  C4    D T 441       2.011  -0.192  10.619  1.00 19.37     0.100 A 
HETATM   23  N1    D T 441       1.960   0.273  11.852  1.00 19.33    -0.308 N 
HETATM   24  C1    D T 441       1.026  -0.123  12.939  1.00 19.43     0.132 C 
HETATM   25  C2    D T 441       2.909   1.200  11.958  1.00 17.45     0.178 A 
HETATM   26  N2    D T 441       3.531   1.280  10.752  1.00 18.66    -0.223 NA
HETATM   27  C3    D T 441       2.961   0.397   9.904  1.00 16.78     0.116 A 
ENDBRANCH  20  22
BRANCH  20  28
HETATM   28  C6    D T 441       1.316  -2.483  10.571  1.00 20.70     0.021 A 
HETATM   29  C7    D T 441       2.068  -3.405   9.800  1.00 21.08    -0.001 A 
HETATM   30  C8    D T 441       2.358  -4.684  10.294  1.00 21.56     0.011 A 
HETATM   31  C9    D T 441       1.905  -5.068  11.563  1.00 22.96     0.058 A 
HETATM   32 CL1    D T 441       2.323  -6.681  12.189  1.00 26.89    -0.082 Cl
HETATM   33  C10   D T 441       1.149  -4.171  12.346  1.00 22.08     0.011 A 
HETATM   34  C11   D T 441       0.854  -2.880  11.852  1.00 21.58    -0.001 A 
ENDBRANCH  20  28
ENDBRANCH   1  20
TORSDOF 3
ENDMDL
MODEL 9
REMARK VINA RESULT:    -9.213      3.386      5.910
REMARK INTER + INTRA:         -10.675
REMARK INTER:                 -11.385
REMARK INTRA:                   0.710
REMARK UNBOUND:                 0.154
REMARK  3 active torsions:
REMARK  status: ('A' for Active; 'I' for Inactive)
REMARK    1  A    between atoms: C4_6  and  C5_7 
REMARK    2  A    between atoms: C5_7  and  C6_8 
REMARK    3  A    between atoms: C5_7  and  C12_16 
ROOT
HETATM    1  C12   D T 441      -2.269   0.805  10.804  1.00 19.85     0.021 A 
HETATM    2  C13   D T 441      -1.155  -0.075  10.926  1.00 19.83    -0.000 A 
HETATM    3  C14   D T 441       0.178   0.420  10.904  1.00 20.16     0.016 A 
HETATM    4  C15   D T 441      -2.024   2.196  10.696  1.00 20.41    -0.000 A 
HETATM    5  C16   D T 441      -0.711   2.693  10.671  1.00 20.73     0.017 A 
HETATM    6  C17   D T 441       0.393   1.819  10.761  1.00 21.09     0.062 A 
HETATM    7  N4    D T 441       1.728   2.323  10.648  1.00 20.91    -0.294 N 
HETATM    8  C18   D T 441       1.985   3.786  10.507  1.00 20.23     0.134 C 
HETATM    9  C19   D T 441       2.827   1.435  10.674  1.00 22.47     0.261 A 
HETATM   10  O1    D T 441       3.972   1.861  10.527  1.00 22.92    -0.267 OA
HETATM   11  C20   D T 441       2.612   0.062  10.832  1.00 22.04     0.061 A 
HETATM   12  C21   D T 441       1.307  -0.463  10.959  1.00 20.64     0.006 A 
HETATM   13  C22   D T 441       1.174  -1.849  11.238  1.00 21.65     0.001 A 
HETATM   14  C23   D T 441       0.456  -2.711  10.377  1.00 20.99     0.011 A 
HETATM   15  C24   D T 441       0.393  -4.093  10.659  1.00 22.35     0.058 A 
HETATM   16 CL2    D T 441      -0.483  -5.184   9.575  1.00 26.30    -0.082 Cl
HETATM   17  C25   D T 441       1.039  -4.622  11.793  1.00 21.98     0.011 A 
HETATM   18  C26   D T 441       1.753  -3.771  12.650  1.00 20.12     0.001 A 
HETATM   19  C27   D T 441       1.820  -2.393  12.376  1.00 21.15     0.000 A 
ENDROOT
BRANCH   1  20
HETATM   20  C5    D T 441      -3.609   0.301  10.611  1.00 20.67     0.342 C 
HETATM   21  N3    D T 441      -4.357   0.860  11.756  1.00 22.80     0.629 N 
BRANCH  20  22
HETATM   22  C4    D T 441      -4.287   0.822   9.440  1.00 19.37     0.100 A 
HETATM   23  N1    D T 441      -3.691   1.064   8.288  1.00 19.33    -0.308 N 
HETATM   24  C1    D T 441      -2.275   0.803   7.920  1.00 19.43     0.132 C 
HETATM   25  C2    D T 441      -4.602   1.616   7.489  1.00 17.45     0.178 A 
HETATM   26  N2    D T 441      -5.761   1.699   8.195  1.00 18.66    -0.223 NA
HETATM   27  C3    D T 441      -5.560   1.196   9.431  1.00 16.78     0.116 A 
ENDBRANCH  20  22
BRANCH  20  28
HETATM   28  C6    D T 441      -3.720  -1.123  10.718  1.00 20.70     0.021 A 
HETATM   29  C7    D T 441      -4.642  -1.826   9.902  1.00 21.08    -0.001 A 
HETATM   30  C8    D T 441      -4.722  -3.225   9.953  1.00 21.56     0.011 A 
HETATM   31  C9    D T 441      -3.885  -3.947  10.815  1.00 22.96     0.058 A 
HETATM   32 CL1    D T 441      -3.973  -5.724  10.829  1.00 26.89    -0.082 Cl
HETATM   33  C10   D T 441      -2.965  -3.269  11.640  1.00 22.08     0.011 A 
HETATM   34  C11   D T 441      -2.881  -1.859  11.593  1.00 21.58    -0.001 A 
ENDBRANCH  20  28
ENDBRANCH   1  20
TORSDOF 3
ENDMDL
