MODEL 1
REMARK VINA RESULT:    -7.188      0.000      0.000
REMARK INTER + INTRA:          -8.081
REMARK INTER:                  -8.028
REMARK INTRA:                  -0.053
REMARK UNBOUND:                -0.053
REMARK  2 active torsions:
REMARK  status: ('A' for Active; 'I' for Inactive)
REMARK    1  A    between atoms: C5_4  and  O7_13 
REMARK    2  A    between atoms: C8_10  and  O7_13 
ROOT
HETATM    1  O7    D T 502       3.128  13.727   0.728  1.00 28.67    -0.304 OA
ENDROOT
BRANCH   1   2
HETATM    2  C5    D T 502       1.788  13.598   0.599  1.00 33.71     0.125 A 
HETATM    3  C6    D T 502       1.287  13.149  -0.643  1.00 25.06     0.154 A 
HETATM    4  C1    D T 502      -0.041  13.005  -0.796  1.00 17.88     0.041 A 
HETATM    5  O17   D T 502       2.107  12.887  -1.646  1.00 23.24    -0.188 OA
HETATM    6  C2    D T 502      -0.842  13.273   0.283  1.00 31.97     0.060 A 
HETATM    7  C3    D T 502      -0.366  13.715   1.525  1.00 21.44     0.014 A 
HETATM    8 CL14   D T 502      -2.570  13.031   0.096  1.00 33.89    -0.082 Cl
HETATM    9  C4    D T 502       0.965  13.871   1.648  1.00 26.23     0.028 A 
ENDBRANCH   1   2
BRANCH   1  10
HETATM   10  C8    D T 502       3.823  12.874   1.588  1.00 57.24     0.111 A 
HETATM   11  C9    D T 502       5.212  13.099   1.740  1.00 45.39     0.081 A 
HETATM   12  C10   D T 502       5.974  12.319   2.573  1.00 19.78     0.025 A 
HETATM   13 CL16   D T 502       6.007  14.387   0.866  1.00 34.00    -0.080 Cl
HETATM   14  C11   D T 502       5.346  11.290   3.284  1.00 50.55     0.059 A 
HETATM   15  C12   D T 502       3.970  11.055   3.154  1.00 64.03     0.013 A 
HETATM   16 CL15   D T 502       6.285  10.285   4.318  1.00 39.89    -0.082 Cl
HETATM   17  C13   D T 502       3.222  11.865   2.289  1.00 34.58     0.026 A 
ENDBRANCH   1  10
TORSDOF 2
ENDMDL
MODEL 2
REMARK VINA RESULT:    -7.174      2.436      6.287
REMARK INTER + INTRA:          -8.065
REMARK INTER:                  -8.203
REMARK INTRA:                   0.137
REMARK UNBOUND:                -0.053
REMARK  2 active torsions:
REMARK  status: ('A' for Active; 'I' for Inactive)
REMARK    1  A    between atoms: C5_4  and  O7_13 
REMARK    2  A    between atoms: C8_10  and  O7_13 
ROOT
HETATM    1  O7    D T 502       2.755  11.701   2.430  1.00 28.67    -0.304 OA
ENDROOT
BRANCH   1   2
HETATM    2  C5    D T 502       4.002  11.474   2.903  1.00 33.71     0.125 A 
HETATM    3  C6    D T 502       4.215  10.296   3.653  1.00 25.06     0.154 A 
HETATM    4  C1    D T 502       5.447  10.042   4.130  1.00 17.88     0.041 A 
HETATM    5  O17   D T 502       3.219   9.463   3.898  1.00 23.24    -0.188 OA
HETATM    6  C2    D T 502       6.444  10.932   3.830  1.00 31.97     0.060 A 
HETATM    7  C3    D T 502       6.256  12.102   3.083  1.00 21.44     0.014 A 
HETATM    8 CL14   D T 502       8.062  10.568   4.406  1.00 33.89    -0.082 Cl
HETATM    9  C4    D T 502       5.011  12.346   2.635  1.00 26.23     0.028 A 
ENDBRANCH   1   2
BRANCH   1  10
HETATM   10  C8    D T 502       2.572  12.584   1.363  1.00 57.24     0.111 A 
HETATM   11  C9    D T 502       1.539  13.543   1.485  1.00 45.39     0.081 A 
HETATM   12  C10   D T 502       1.294  14.458   0.493  1.00 19.78     0.025 A 
HETATM   13 CL16   D T 502       0.535  13.593   2.915  1.00 34.00    -0.080 Cl
HETATM   14  C11   D T 502       2.097  14.432  -0.652  1.00 50.55     0.059 A 
HETATM   15  C12   D T 502       3.132  13.496  -0.791  1.00 64.03     0.013 A 
HETATM   16 CL15   D T 502       1.795  15.556  -1.920  1.00 39.89    -0.082 Cl
HETATM   17  C13   D T 502       3.351  12.570   0.238  1.00 34.58     0.026 A 
ENDBRANCH   1  10
TORSDOF 2
ENDMDL
MODEL 3
REMARK VINA RESULT:    -7.116      1.834      3.382
REMARK INTER + INTRA:          -8.001
REMARK INTER:                  -7.753
REMARK INTRA:                  -0.248
REMARK UNBOUND:                -0.053
REMARK  2 active torsions:
REMARK  status: ('A' for Active; 'I' for Inactive)
REMARK    1  A    between atoms: C5_4  and  O7_13 
REMARK    2  A    between atoms: C8_10  and  O7_13 
ROOT
HETATM    1  O7    D T 502       2.605  12.190   0.494  1.00 28.67    -0.304 OA
ENDROOT
BRANCH   1   2
HETATM    2  C5    D T 502       1.321  12.613   0.475  1.00 33.71     0.125 A 
HETATM    3  C6    D T 502       0.740  13.003   1.702  1.00 25.06     0.154 A 
HETATM    4  C1    D T 502      -0.534  13.435   1.711  1.00 17.88     0.041 A 
HETATM    5  O17   D T 502       1.428  12.932   2.827  1.00 23.24    -0.188 OA
HETATM    6  C2    D T 502      -1.194  13.506   0.513  1.00 31.97     0.060 A 
HETATM    7  C3    D T 502      -0.635  13.130  -0.716  1.00 21.44     0.014 A 
HETATM    8 CL14   D T 502      -2.837  14.122   0.522  1.00 33.89    -0.082 Cl
HETATM    9  C4    D T 502       0.633  12.681  -0.698  1.00 26.23     0.028 A 
ENDBRANCH   1   2
BRANCH   1  10
HETATM   10  C8    D T 502       3.634  13.097   0.233  1.00 57.24     0.111 A 
HETATM   11  C9    D T 502       4.710  13.139   1.152  1.00 45.39     0.081 A 
HETATM   12  C10   D T 502       5.770  13.990   0.971  1.00 19.78     0.025 A 
HETATM   13 CL16   D T 502       4.721  12.099   2.557  1.00 34.00    -0.080 Cl
HETATM   14  C11   D T 502       5.775  14.821  -0.155  1.00 50.55     0.059 A 
HETATM   15  C12   D T 502       4.724  14.791  -1.082  1.00 64.03     0.013 A 
HETATM   16 CL15   D T 502       7.084  15.913  -0.392  1.00 39.89    -0.082 Cl
HETATM   17  C13   D T 502       3.652  13.915  -0.864  1.00 34.58     0.026 A 
ENDBRANCH   1  10
TORSDOF 2
ENDMDL
MODEL 4
REMARK VINA RESULT:    -6.939      3.241      6.391
REMARK INTER + INTRA:          -7.803
REMARK INTER:                  -7.263
REMARK INTRA:                  -0.540
REMARK UNBOUND:                -0.053
REMARK  2 active torsions:
REMARK  status: ('A' for Active; 'I' for Inactive)
REMARK    1  A    between atoms: C5_4  and  O7_13 
REMARK    2  A    between atoms: C8_10  and  O7_13 
ROOT
HETATM    1  O7    D T 502       4.307  13.020  -1.245  1.00 28.67    -0.304 OA
ENDROOT
BRANCH   1   2
HETATM    2  C5    D T 502       4.902  12.630  -0.094  1.00 33.71     0.125 A 
HETATM    3  C6    D T 502       6.271  12.283  -0.147  1.00 25.06     0.154 A 
HETATM    4  C1    D T 502       6.888  11.898   0.983  1.00 17.88     0.041 A 
HETATM    5  O17   D T 502       6.932  12.321  -1.290  1.00 23.24    -0.188 OA
HETATM    6  C2    D T 502       6.158  11.895   2.142  1.00 31.97     0.060 A 
HETATM    7  C3    D T 502       4.803  12.240   2.218  1.00 21.44     0.014 A 
HETATM    8 CL14   D T 502       6.983  11.446   3.625  1.00 33.89    -0.082 Cl
HETATM    9  C4    D T 502       4.200  12.602   1.071  1.00 26.23     0.028 A 
ENDBRANCH   1   2
BRANCH   1  10
HETATM   10  C8    D T 502       3.973  14.364  -1.427  1.00 57.24     0.111 A 
HETATM   11  C9    D T 502       2.598  14.700  -1.396  1.00 45.39     0.081 A 
HETATM   12  C10   D T 502       2.177  15.995  -1.554  1.00 19.78     0.025 A 
HETATM   13 CL16   D T 502       1.386  13.464  -1.155  1.00 34.00    -0.080 Cl
HETATM   14  C11   D T 502       3.140  16.993  -1.740  1.00 50.55     0.059 A 
HETATM   15  C12   D T 502       4.508  16.684  -1.765  1.00 64.03     0.013 A 
HETATM   16 CL15   D T 502       2.635  18.623  -1.961  1.00 39.89    -0.082 Cl
HETATM   17  C13   D T 502       4.904  15.349  -1.609  1.00 34.58     0.026 A 
ENDBRANCH   1  10
TORSDOF 2
ENDMDL
MODEL 5
REMARK VINA RESULT:    -6.924      2.945      3.574
REMARK INTER + INTRA:          -7.786
REMARK INTER:                  -7.294
REMARK INTRA:                  -0.493
REMARK UNBOUND:                -0.053
REMARK  2 active torsions:
REMARK  status: ('A' for Active; 'I' for Inactive)
REMARK    1  A    between atoms: C5_4  and  O7_13 
REMARK    2  A    between atoms: C8_10  and  O7_13 
ROOT
HETATM    1  O7    D T 502       4.058  12.884  -1.003  1.00 28.67    -0.304 OA
ENDROOT
BRANCH   1   2
HETATM    2  C5    D T 502       3.752  14.177  -1.251  1.00 33.71     0.125 A 
HETATM    3  C6    D T 502       2.385  14.524  -1.336  1.00 25.06     0.154 A 
HETATM    4  C1    D T 502       2.052  15.805  -1.575  1.00 17.88     0.041 A 
HETATM    5  O17   D T 502       1.446  13.604  -1.199  1.00 23.24    -0.188 OA
HETATM    6  C2    D T 502       3.066  16.718  -1.691  1.00 31.97     0.060 A 
HETATM    7  C3    D T 502       4.427  16.397  -1.604  1.00 21.44     0.014 A 
HETATM    8 CL14   D T 502       2.626  18.398  -1.947  1.00 33.89    -0.082 Cl
HETATM    9  C4    D T 502       4.737  15.106  -1.385  1.00 26.23     0.028 A 
ENDBRANCH   1   2
BRANCH   1  10
HETATM   10  C8    D T 502       4.755  12.551   0.161  1.00 57.24     0.111 A 
HETATM   11  C9    D T 502       6.126  12.226   0.026  1.00 45.39     0.081 A 
HETATM   12  C10   D T 502       6.892  11.899   1.115  1.00 19.78     0.025 A 
HETATM   13 CL16   D T 502       6.891  12.233  -1.545  1.00 34.00    -0.080 Cl
HETATM   14  C11   D T 502       6.291  11.898   2.379  1.00 50.55     0.059 A 
HETATM   15  C12   D T 502       4.937  12.224   2.538  1.00 64.03     0.013 A 
HETATM   16 CL15   D T 502       7.227  11.470   3.758  1.00 39.89    -0.082 Cl
HETATM   17  C13   D T 502       4.180  12.547   1.403  1.00 34.58     0.026 A 
ENDBRANCH   1  10
TORSDOF 2
ENDMDL
MODEL 6
REMARK VINA RESULT:    -6.814      2.013      5.994
REMARK INTER + INTRA:          -7.664
REMARK INTER:                  -7.726
REMARK INTRA:                   0.062
REMARK UNBOUND:                -0.053
REMARK  2 active torsions:
REMARK  status: ('A' for Active; 'I' for Inactive)
REMARK    1  A    between atoms: C5_4  and  O7_13 
REMARK    2  A    between atoms: C8_10  and  O7_13 
ROOT
HETATM    1  O7    D T 502       4.741  13.339  -0.427  1.00 28.67    -0.304 OA
ENDROOT
BRANCH   1   2
HETATM    2  C5    D T 502       5.323  12.755   0.645  1.00 33.71     0.125 A 
HETATM    3  C6    D T 502       6.585  12.148   0.458  1.00 25.06     0.154 A 
HETATM    4  C1    D T 502       7.189  11.566   1.509  1.00 17.88     0.041 A 
HETATM    5  O17   D T 502       7.158  12.137  -0.732  1.00 23.24    -0.188 OA
HETATM    6  C2    D T 502       6.558  11.624   2.723  1.00 31.97     0.060 A 
HETATM    7  C3    D T 502       5.310  12.226   2.932  1.00 21.44     0.014 A 
HETATM    8 CL14   D T 502       7.376  10.912   4.103  1.00 33.89    -0.082 Cl
HETATM    9  C4    D T 502       4.714  12.783   1.862  1.00 26.23     0.028 A 
ENDBRANCH   1   2
BRANCH   1  10
HETATM   10  C8    D T 502       3.348  13.369  -0.525  1.00 57.24     0.111 A 
HETATM   11  C9    D T 502       2.761  14.533  -1.074  1.00 45.39     0.081 A 
HETATM   12  C10   D T 502       1.402  14.646  -1.220  1.00 19.78     0.025 A 
HETATM   13 CL16   D T 502       3.757  15.874  -1.588  1.00 34.00    -0.080 Cl
HETATM   14  C11   D T 502       0.596  13.575  -0.819  1.00 50.55     0.059 A 
HETATM   15  C12   D T 502       1.156  12.408  -0.279  1.00 64.03     0.013 A 
HETATM   16 CL15   D T 502      -1.113  13.702  -0.972  1.00 39.89    -0.082 Cl
HETATM   17  C13   D T 502       2.548  12.328  -0.137  1.00 34.58     0.026 A 
ENDBRANCH   1  10
TORSDOF 2
ENDMDL
MODEL 7
REMARK VINA RESULT:    -6.795      3.467      4.394
REMARK INTER + INTRA:          -7.642
REMARK INTER:                  -7.143
REMARK INTRA:                  -0.499
REMARK UNBOUND:                -0.053
REMARK  2 active torsions:
REMARK  status: ('A' for Active; 'I' for Inactive)
REMARK    1  A    between atoms: C5_4  and  O7_13 
REMARK    2  A    between atoms: C8_10  and  O7_13 
ROOT
HETATM    1  O7    D T 502       3.584  13.496  -1.807  1.00 28.67    -0.304 OA
ENDROOT
BRANCH   1   2
HETATM    2  C5    D T 502       3.396  14.811  -2.061  1.00 33.71     0.125 A 
HETATM    3  C6    D T 502       4.351  15.466  -2.872  1.00 25.06     0.154 A 
HETATM    4  C1    D T 502       4.184  16.771  -3.147  1.00 17.88     0.041 A 
HETATM    5  O17   D T 502       5.398  14.812  -3.342  1.00 23.24    -0.188 OA
HETATM    6  C2    D T 502       3.070  17.394  -2.649  1.00 31.97     0.060 A 
HETATM    7  C3    D T 502       2.110  16.762  -1.848  1.00 21.44     0.014 A 
HETATM    8 CL14   D T 502       2.829  19.083  -3.056  1.00 33.89    -0.082 Cl
HETATM    9  C4    D T 502       2.307  15.461  -1.568  1.00 26.23     0.028 A 
ENDBRANCH   1   2
BRANCH   1  10
HETATM   10  C8    D T 502       3.902  13.083  -0.511  1.00 57.24     0.111 A 
HETATM   11  C9    D T 502       2.876  12.467   0.244  1.00 45.39     0.081 A 
HETATM   12  C10   D T 502       3.100  12.020   1.520  1.00 19.78     0.025 A 
HETATM   13 CL16   D T 502       1.278  12.258  -0.432  1.00 34.00    -0.080 Cl
HETATM   14  C11   D T 502       4.377  12.176   2.069  1.00 50.55     0.059 A 
HETATM   15  C12   D T 502       5.412  12.775   1.336  1.00 64.03     0.013 A 
HETATM   16 CL15   D T 502       4.677  11.641   3.677  1.00 39.89    -0.082 Cl
HETATM   17  C13   D T 502       5.148  13.229   0.037  1.00 34.58     0.026 A 
ENDBRANCH   1  10
TORSDOF 2
ENDMDL
MODEL 8
REMARK VINA RESULT:    -6.763      2.542      5.747
REMARK INTER + INTRA:          -7.606
REMARK INTER:                  -7.089
REMARK INTRA:                  -0.518
REMARK UNBOUND:                -0.053
REMARK  2 active torsions:
REMARK  status: ('A' for Active; 'I' for Inactive)
REMARK    1  A    between atoms: C5_4  and  O7_13 
REMARK    2  A    between atoms: C8_10  and  O7_13 
ROOT
HETATM    1  O7    D T 502       4.277  12.300  -0.206  1.00 28.67    -0.304 OA
ENDROOT
BRANCH   1   2
HETATM    2  C5    D T 502       5.178  13.288  -0.413  1.00 33.71     0.125 A 
HETATM    3  C6    D T 502       5.583  13.539  -1.743  1.00 25.06     0.154 A 
HETATM    4  C1    D T 502       6.472  14.519  -1.978  1.00 17.88     0.041 A 
HETATM    5  O17   D T 502       5.109  12.814  -2.741  1.00 23.24    -0.188 OA
HETATM    6  C2    D T 502       6.916  15.251  -0.909  1.00 31.97     0.060 A 
HETATM    7  C3    D T 502       6.523  15.022   0.417  1.00 21.44     0.014 A 
HETATM    8 CL14   D T 502       8.034  16.566  -1.227  1.00 33.89    -0.082 Cl
HETATM    9  C4    D T 502       5.649  14.023   0.631  1.00 26.23     0.028 A 
ENDBRANCH   1   2
BRANCH   1  10
HETATM   10  C8    D T 502       2.952  12.627   0.093  1.00 57.24     0.111 A 
HETATM   11  C9    D T 502       2.523  12.438   1.428  1.00 45.39     0.081 A 
HETATM   12  C10   D T 502       1.244  12.743   1.816  1.00 19.78     0.025 A 
HETATM   13 CL16   D T 502       3.620  11.807   2.634  1.00 34.00    -0.080 Cl
HETATM   14  C11   D T 502       0.360  13.257   0.860  1.00 50.55     0.059 A 
HETATM   15  C12   D T 502       0.766  13.459  -0.467  1.00 64.03     0.013 A 
HETATM   16 CL15   D T 502      -1.257  13.626   1.318  1.00 39.89    -0.082 Cl
HETATM   17  C13   D T 502       2.078  13.130  -0.832  1.00 34.58     0.026 A 
ENDBRANCH   1  10
TORSDOF 2
ENDMDL
MODEL 9
REMARK VINA RESULT:    -6.639      2.755      4.013
REMARK INTER + INTRA:          -7.467
REMARK INTER:                  -6.965
REMARK INTRA:                  -0.502
REMARK UNBOUND:                -0.053
REMARK  2 active torsions:
REMARK  status: ('A' for Active; 'I' for Inactive)
REMARK    1  A    between atoms: C5_4  and  O7_13 
REMARK    2  A    between atoms: C8_10  and  O7_13 
ROOT
HETATM    1  O7    D T 502       4.241  12.322  -0.178  1.00 28.67    -0.304 OA
ENDROOT
BRANCH   1   2
HETATM    2  C5    D T 502       2.958  12.615   0.135  1.00 33.71     0.125 A 
HETATM    3  C6    D T 502       2.543  12.404   1.469  1.00 25.06     0.154 A 
HETATM    4  C1    D T 502       1.275  12.694   1.809  1.00 17.88     0.041 A 
HETATM    5  O17   D T 502       3.380  11.916   2.367  1.00 23.24    -0.188 OA
HETATM    6  C2    D T 502       0.456  13.215   0.842  1.00 31.97     0.060 A 
HETATM    7  C3    D T 502       0.849  13.436  -0.485  1.00 21.44     0.014 A 
HETATM    8 CL14   D T 502      -1.182  13.643   1.304  1.00 33.89    -0.082 Cl
HETATM    9  C4    D T 502       2.116  13.119  -0.807  1.00 26.23     0.028 A 
ENDBRANCH   1   2
BRANCH   1  10
HETATM   10  C8    D T 502       5.170  13.355  -0.320  1.00 57.24     0.111 A 
HETATM   11  C9    D T 502       5.585  13.678  -1.634  1.00 45.39     0.081 A 
HETATM   12  C10   D T 502       6.484  14.685  -1.871  1.00 19.78     0.025 A 
HETATM   13 CL16   D T 502       4.959  12.794  -3.007  1.00 34.00    -0.080 Cl
HETATM   14  C11   D T 502       6.985  15.404  -0.780  1.00 50.55     0.059 A 
HETATM   15  C12   D T 502       6.582  15.107   0.530  1.00 64.03     0.013 A 
HETATM   16 CL15   D T 502       8.131  16.658  -1.051  1.00 39.89    -0.082 Cl
HETATM   17  C13   D T 502       5.667  14.066   0.738  1.00 34.58     0.026 A 
ENDBRANCH   1  10
TORSDOF 2
ENDMDL
