MODEL 1
REMARK VINA RESULT:    -9.756      0.000      0.000
REMARK INTER + INTRA:         -14.517
REMARK INTER:                 -13.748
REMARK INTRA:                  -0.768
REMARK UNBOUND:                -0.768
REMARK  7 active torsions:
REMARK  status: ('A' for Active; 'I' for Inactive)
REMARK    1  A    between atoms: C13_1  and  C25_21 
REMARK    2  A    between atoms: C17_3  and  C14_7 
REMARK    3  A    between atoms: C17_3  and  N18_33 
REMARK    4  A    between atoms: C11_5  and  N10_10 
REMARK       I    between atoms: N10_10  and  C08_17 
REMARK    5  A    between atoms: C03_12  and  C29_22 
REMARK    6  A    between atoms: C05_14  and  C08_17 
REMARK    7  A    between atoms: C30_23  and  C31_24 
ROOT
HETATM    1  N10   D T2602      -1.755  -1.086  10.447  1.00 94.57    -0.208 NA
HETATM    2  C08   D T2602      -3.166  -0.976  10.081  1.00 96.06     0.279 C 
HETATM    3  O09   D T2602      -3.620   0.070   9.784  1.00 99.47    -0.265 OA
ENDROOT
BRANCH   1   4
HETATM    4  C11   D T2602      -0.892   0.122  10.449  1.00 98.39     0.085 A 
HETATM    5  C12   D T2602      -0.826   0.924  11.582  1.00102.66     0.023 A 
HETATM    6  C13   D T2602      -0.019   2.079  11.634  1.00102.89     0.071 A 
HETATM    7  C14   D T2602       0.754   2.432  10.490  1.00103.19     0.015 A 
HETATM    8  C15   D T2602       0.676   1.609   9.364  1.00105.74    -0.001 A 
HETATM    9  C16   D T2602      -0.138   0.466   9.337  1.00102.06     0.019 A 
BRANCH   6  10
HETATM   10  C25   D T2602      -0.002   2.919  12.916  1.00102.82     0.419 C 
HETATM   11  F26   D T2602      -1.165   2.709  13.590  1.00107.06    -0.166 F 
HETATM   12  F27   D T2602       1.036   2.541  13.711  1.00102.60    -0.166 F 
HETATM   13  F28   D T2602       0.101   4.243  12.609  1.00103.37    -0.166 F 
ENDBRANCH   6  10
BRANCH   7  14
HETATM   14  C17   D T2602       1.675   3.705  10.489  1.00100.67     0.277 C 
BRANCH  14  15
HETATM   15  N18   D T2602       2.929   3.374  10.192  1.00104.04     0.146 N 
HETATM   16  C19   D T2602       3.566   3.121  11.312  1.00107.77     0.286 C 
HETATM   17  C20   D T2602       5.075   3.407  11.302  1.00107.78     0.286 C 
HETATM   18  N21   D T2602       5.519   3.341  10.063  1.00106.92     0.143 N 
HETATM   19  C22   D T2602       4.990   4.336   9.388  1.00103.68     0.286 C 
HETATM   20  C24   D T2602       6.816   3.441  10.072  1.00105.81     0.285 C 
HETATM   21  C23   D T2602       3.460   4.289   9.430  1.00104.89     0.286 C 
ENDBRANCH  14  15
ENDBRANCH   7  14
ENDBRANCH   1   4
BRANCH   2  22
HETATM   22  C05   D T2602      -4.075  -2.226  10.088  1.00 96.97     0.059 A 
HETATM   23  C04   D T2602      -3.583  -3.415  10.605  1.00 99.17     0.013 A 
HETATM   24  C03   D T2602      -4.379  -4.543  10.616  1.00 96.89     0.042 A 
HETATM   25  C02   D T2602      -5.666  -4.489  10.104  1.00 99.79     0.008 A 
HETATM   26  C07   D T2602      -6.154  -3.302   9.585  1.00100.07     0.001 A 
HETATM   27  C06   D T2602      -5.358  -2.166   9.574  1.00100.96     0.005 A 
BRANCH  24  28
HETATM   28  C29   D T2602      -3.841  -5.860  11.192  1.00 99.16    -0.059 C 
HETATM   29  C30   D T2602      -3.429  -6.892  11.631  1.00101.30    -0.058 C 
BRANCH  29  30
HETATM   30  C31   D T2602      -2.894  -8.226  12.179  1.00 99.24     0.061 A 
HETATM   31  C32   D T2602      -3.584  -8.945  13.133  1.00 99.88     0.015 A 
HETATM   32  C33   D T2602      -3.051 -10.086  13.554  1.00 95.59     0.059 A 
HETATM   33  C34   D T2602      -1.815 -10.576  13.050  1.00 97.44     0.185 A 
HETATM   34  C37   D T2602      -3.373 -11.134  14.486  1.00101.07     0.125 A 
HETATM   35  N35   D T2602      -1.707 -11.783  13.799  1.00 99.25    -0.129 NA
HETATM   36  N38   D T2602      -1.109  -9.933  12.131  1.00 99.75    -0.223 NA
HETATM   37  N36   D T2602      -2.620 -12.143  14.664  1.00101.72    -0.145 NA
HETATM   38  C39   D T2602      -1.652  -8.742  11.685  1.00 98.74     0.109 A 
ENDBRANCH  29  30
ENDBRANCH  24  28
ENDBRANCH   2  22
TORSDOF 7
ENDMDL
MODEL 2
REMARK VINA RESULT:    -9.460      3.357     12.545
REMARK INTER + INTRA:         -14.100
REMARK INTER:                 -13.401
REMARK INTRA:                  -0.699
REMARK UNBOUND:                -0.768
REMARK  7 active torsions:
REMARK  status: ('A' for Active; 'I' for Inactive)
REMARK    1  A    between atoms: C13_1  and  C25_21 
REMARK    2  A    between atoms: C17_3  and  C14_7 
REMARK    3  A    between atoms: C17_3  and  N18_33 
REMARK    4  A    between atoms: C11_5  and  N10_10 
REMARK       I    between atoms: N10_10  and  C08_17 
REMARK    5  A    between atoms: C03_12  and  C29_22 
REMARK    6  A    between atoms: C05_14  and  C08_17 
REMARK    7  A    between atoms: C30_23  and  C31_24 
ROOT
HETATM    1  N10   D T2602      -1.799  -1.287  11.609  1.00 94.57    -0.208 NA
HETATM    2  C08   D T2602      -0.677  -0.842  10.785  1.00 96.06     0.279 C 
HETATM    3  O09   D T2602      -0.090  -1.617  10.119  1.00 99.47    -0.265 OA
ENDROOT
BRANCH   1   4
HETATM    4  C11   D T2602      -2.197  -2.717  11.612  1.00 98.39     0.085 A 
HETATM    5  C12   D T2602      -3.265  -3.140  10.829  1.00102.66     0.023 A 
HETATM    6  C13   D T2602      -3.679  -4.487  10.795  1.00102.89     0.071 A 
HETATM    7  C14   D T2602      -2.979  -5.444  11.588  1.00103.19     0.015 A 
HETATM    8  C15   D T2602      -1.907  -4.997  12.363  1.00105.74    -0.001 A 
HETATM    9  C16   D T2602      -1.516  -3.649  12.380  1.00102.06     0.019 A 
BRANCH   6  10
HETATM   10  C25   D T2602      -4.869  -4.879   9.913  1.00102.82     0.419 C 
HETATM   11  F26   D T2602      -5.901  -5.256  10.715  1.00107.06    -0.166 F 
HETATM   12  F27   D T2602      -5.266  -3.817   9.162  1.00102.60    -0.166 F 
HETATM   13  F28   D T2602      -4.531  -5.924   9.105  1.00103.37    -0.166 F 
ENDBRANCH   6  10
BRANCH   7  14
HETATM   14  C17   D T2602      -3.392  -6.960  11.589  1.00100.67     0.277 C 
BRANCH  14  15
HETATM   15  N18   D T2602      -2.365  -7.723  11.956  1.00104.04     0.146 N 
HETATM   16  C19   D T2602      -1.730  -8.108  10.874  1.00107.77     0.286 C 
HETATM   17  C20   D T2602      -1.017  -9.467  10.966  1.00107.78     0.286 C 
HETATM   18  N21   D T2602      -0.737  -9.723  12.227  1.00106.92     0.143 N 
HETATM   19  C22   D T2602      -1.870  -9.900  12.868  1.00103.68     0.286 C 
HETATM   20  C24   D T2602      -0.010 -10.799  12.290  1.00105.81     0.285 C 
HETATM   21  C23   D T2602      -2.782  -8.676  12.742  1.00104.89     0.286 C 
ENDBRANCH  14  15
ENDBRANCH   7  14
ENDBRANCH   1   4
BRANCH   2  22
HETATM   22  C05   D T2602      -0.247   0.643  10.785  1.00 96.97     0.059 A 
HETATM   23  C04   D T2602       0.998   0.985  10.281  1.00 99.17     0.013 A 
HETATM   24  C03   D T2602       1.400   2.305  10.275  1.00 96.89     0.042 A 
HETATM   25  C02   D T2602       0.562   3.288  10.780  1.00 99.79     0.008 A 
HETATM   26  C07   D T2602      -0.680   2.944  11.285  1.00100.07     0.001 A 
HETATM   27  C06   D T2602      -1.088   1.619  11.290  1.00100.96     0.005 A 
BRANCH  24  28
HETATM   28  C29   D T2602       2.776   2.689   9.714  1.00 99.16    -0.059 C 
HETATM   29  C30   D T2602       3.841   2.997   9.269  1.00101.30    -0.058 C 
BRANCH  29  30
HETATM   30  C31   D T2602       5.208   3.412   8.698  1.00 99.24     0.061 A 
HETATM   31  C32   D T2602       5.504   4.731   8.415  1.00 99.88     0.015 A 
HETATM   32  C33   D T2602       6.706   5.003   7.922  1.00 95.59     0.059 A 
HETATM   33  C34   D T2602       7.677   3.991   7.691  1.00 97.44     0.185 A 
HETATM   34  C37   D T2602       7.445   6.160   7.492  1.00101.07     0.125 A 
HETATM   35  N35   D T2602       8.744   4.787   7.183  1.00 99.25    -0.129 NA
HETATM   36  N38   D T2602       7.454   2.709   7.946  1.00 99.75    -0.223 NA
HETATM   37  N36   D T2602       8.636   6.084   7.052  1.00101.72    -0.145 NA
HETATM   38  C39   D T2602       6.204   2.411   8.458  1.00 98.74     0.109 A 
ENDBRANCH  29  30
ENDBRANCH  24  28
ENDBRANCH   2  22
TORSDOF 7
ENDMDL
MODEL 3
REMARK VINA RESULT:    -9.427      4.194     12.751
REMARK INTER + INTRA:         -14.053
REMARK INTER:                 -13.274
REMARK INTRA:                  -0.778
REMARK UNBOUND:                -0.768
REMARK  7 active torsions:
REMARK  status: ('A' for Active; 'I' for Inactive)
REMARK    1  A    between atoms: C13_1  and  C25_21 
REMARK    2  A    between atoms: C17_3  and  C14_7 
REMARK    3  A    between atoms: C17_3  and  N18_33 
REMARK    4  A    between atoms: C11_5  and  N10_10 
REMARK       I    between atoms: N10_10  and  C08_17 
REMARK    5  A    between atoms: C03_12  and  C29_22 
REMARK    6  A    between atoms: C05_14  and  C08_17 
REMARK    7  A    between atoms: C30_23  and  C31_24 
ROOT
HETATM    1  N10   D T2602      -3.355  -6.361  12.032  1.00 94.57    -0.208 NA
HETATM    2  C08   D T2602      -3.784  -6.110  10.658  1.00 96.06     0.279 C 
HETATM    3  O09   D T2602      -3.711  -6.965   9.851  1.00 99.47    -0.265 OA
ENDROOT
BRANCH   1   4
HETATM    4  C11   D T2602      -2.819  -7.692  12.412  1.00 98.39     0.085 A 
HETATM    5  C12   D T2602      -1.455  -7.942  12.321  1.00102.66     0.023 A 
HETATM    6  C13   D T2602      -0.899  -9.189  12.673  1.00102.89     0.071 A 
HETATM    7  C14   D T2602      -1.763 -10.222  13.140  1.00103.19     0.015 A 
HETATM    8  C15   D T2602      -3.129  -9.947  13.228  1.00105.74    -0.001 A 
HETATM    9  C16   D T2602      -3.658  -8.698  12.869  1.00102.06     0.019 A 
BRANCH   6  10
HETATM   10  C25   D T2602       0.614  -9.394  12.540  1.00102.82     0.419 C 
HETATM   11  F26   D T2602       0.841 -10.386  11.637  1.00107.06    -0.166 F 
HETATM   12  F27   D T2602       1.204  -8.253  12.090  1.00102.60    -0.166 F 
HETATM   13  F28   D T2602       1.147  -9.756  13.741  1.00103.37    -0.166 F 
ENDBRANCH   6  10
BRANCH   7  14
HETATM   14  C17   D T2602      -1.201 -11.631  13.551  1.00100.67     0.277 C 
BRANCH  14  15
HETATM   15  N18   D T2602      -2.167 -12.546  13.520  1.00104.04     0.146 N 
HETATM   16  C19   D T2602      -2.186 -13.163  14.678  1.00107.77     0.286 C 
HETATM   17  C20   D T2602      -2.670 -14.622  14.650  1.00107.78     0.286 C 
HETATM   18  N21   D T2602      -3.450 -14.797  13.603  1.00106.92     0.143 N 
HETATM   19  C22   D T2602      -2.715 -14.672  12.521  1.00103.68     0.286 C 
HETATM   20  C24   D T2602      -3.972 -15.988  13.658  1.00105.81     0.285 C 
HETATM   21  C23   D T2602      -2.023 -13.306  12.471  1.00104.89     0.286 C 
ENDBRANCH  14  15
ENDBRANCH   7  14
ENDBRANCH   1   4
BRANCH   2  22
HETATM   22  C05   D T2602      -4.332  -4.723  10.251  1.00 96.97     0.059 A 
HETATM   23  C04   D T2602      -3.552  -3.598  10.472  1.00 99.17     0.013 A 
HETATM   24  C03   D T2602      -4.025  -2.351  10.117  1.00 96.89     0.042 A 
HETATM   25  C02   D T2602      -5.282  -2.222   9.547  1.00 99.79     0.008 A 
HETATM   26  C07   D T2602      -6.061  -3.347   9.330  1.00100.07     0.001 A 
HETATM   27  C06   D T2602      -5.588  -4.601   9.683  1.00100.96     0.005 A 
BRANCH  24  28
HETATM   28  C29   D T2602      -3.163  -1.104  10.355  1.00 99.16    -0.059 C 
HETATM   29  C30   D T2602      -2.481  -0.139  10.533  1.00101.30    -0.058 C 
BRANCH  29  30
HETATM   30  C31   D T2602      -1.601   1.105  10.743  1.00 99.24     0.061 A 
HETATM   31  C32   D T2602      -0.897   1.303  11.913  1.00 99.88     0.015 A 
HETATM   32  C33   D T2602      -0.162   2.405  12.014  1.00 95.59     0.059 A 
HETATM   33  C34   D T2602      -0.081   3.361  10.964  1.00 97.44     0.185 A 
HETATM   34  C37   D T2602       0.704   3.025  12.982  1.00101.07     0.125 A 
HETATM   35  N35   D T2602       0.803   4.305  11.561  1.00 99.25    -0.129 NA
HETATM   36  N38   D T2602      -0.730   3.223   9.817  1.00 99.75    -0.223 NA
HETATM   37  N36   D T2602       1.288   4.132  12.764  1.00101.72    -0.145 NA
HETATM   38  C39   D T2602      -1.502   2.081   9.699  1.00 98.74     0.109 A 
ENDBRANCH  29  30
ENDBRANCH  24  28
ENDBRANCH   2  22
TORSDOF 7
ENDMDL
MODEL 4
REMARK VINA RESULT:    -9.397      4.329     13.213
REMARK INTER + INTRA:         -14.010
REMARK INTER:                 -13.257
REMARK INTRA:                  -0.753
REMARK UNBOUND:                -0.768
REMARK  7 active torsions:
REMARK  status: ('A' for Active; 'I' for Inactive)
REMARK    1  A    between atoms: C13_1  and  C25_21 
REMARK    2  A    between atoms: C17_3  and  C14_7 
REMARK    3  A    between atoms: C17_3  and  N18_33 
REMARK    4  A    between atoms: C11_5  and  N10_10 
REMARK       I    between atoms: N10_10  and  C08_17 
REMARK    5  A    between atoms: C03_12  and  C29_22 
REMARK    6  A    between atoms: C05_14  and  C08_17 
REMARK    7  A    between atoms: C30_23  and  C31_24 
ROOT
HETATM    1  N10   D T2602      -3.436  -6.445  11.313  1.00 94.57    -0.208 NA
HETATM    2  C08   D T2602      -2.768  -5.230  11.775  1.00 96.06     0.279 C 
HETATM    3  O09   D T2602      -1.886  -5.300  12.552  1.00 99.47    -0.265 OA
ENDROOT
BRANCH   1   4
HETATM    4  C11   D T2602      -3.006  -7.770  11.827  1.00 98.39     0.085 A 
HETATM    5  C12   D T2602      -1.900  -8.402  11.272  1.00102.66     0.023 A 
HETATM    6  C13   D T2602      -1.451  -9.658  11.728  1.00102.89     0.071 A 
HETATM    7  C14   D T2602      -2.153 -10.297  12.791  1.00103.19     0.015 A 
HETATM    8  C15   D T2602      -3.259  -9.642  13.336  1.00105.74    -0.001 A 
HETATM    9  C16   D T2602      -3.687  -8.392  12.862  1.00102.06     0.019 A 
BRANCH   6  10
HETATM   10  C25   D T2602      -0.226 -10.298  11.064  1.00102.82     0.419 C 
HETATM   11  F26   D T2602       0.833 -10.192  11.911  1.00107.06    -0.166 F 
HETATM   12  F27   D T2602      -0.459 -11.616  10.821  1.00102.60    -0.166 F 
HETATM   13  F28   D T2602       0.068  -9.651   9.901  1.00103.37    -0.166 F 
ENDBRANCH   6  10
BRANCH   7  14
HETATM   14  C17   D T2602      -1.698 -11.696  13.344  1.00100.67     0.277 C 
BRANCH  14  15
HETATM   15  N18   D T2602      -2.716 -12.554  13.338  1.00104.04     0.146 N 
HETATM   16  C19   D T2602      -2.844 -13.051  14.546  1.00107.77     0.286 C 
HETATM   17  C20   D T2602      -3.414 -14.475  14.626  1.00107.78     0.286 C 
HETATM   18  N21   D T2602      -4.140 -14.710  13.552  1.00106.92     0.143 N 
HETATM   19  C22   D T2602      -3.335 -14.734  12.514  1.00103.68     0.286 C 
HETATM   20  C24   D T2602      -4.737 -15.858  13.686  1.00105.81     0.285 C 
HETATM   21  C23   D T2602      -2.557 -13.422  12.379  1.00104.89     0.286 C 
ENDBRANCH  14  15
ENDBRANCH   7  14
ENDBRANCH   1   4
BRANCH   2  22
HETATM   22  C05   D T2602      -3.217  -3.845  11.254  1.00 96.97     0.059 A 
HETATM   23  C04   D T2602      -2.277  -2.834  11.130  1.00 99.17     0.013 A 
HETATM   24  C03   D T2602      -2.659  -1.590  10.670  1.00 96.89     0.042 A 
HETATM   25  C02   D T2602      -3.984  -1.350  10.339  1.00 99.79     0.008 A 
HETATM   26  C07   D T2602      -4.922  -2.361  10.466  1.00100.07     0.001 A 
HETATM   27  C06   D T2602      -4.540  -3.612  10.926  1.00100.96     0.005 A 
BRANCH  24  28
HETATM   28  C29   D T2602      -1.621  -0.469  10.526  1.00 99.16    -0.059 C 
HETATM   29  C30   D T2602      -0.814   0.407  10.428  1.00101.30    -0.058 C 
BRANCH  29  30
HETATM   30  C31   D T2602       0.232   1.529  10.318  1.00 99.24     0.061 A 
HETATM   31  C32   D T2602       1.536   1.269   9.946  1.00 99.88     0.015 A 
HETATM   32  C33   D T2602       2.376   2.294   9.878  1.00 95.59     0.059 A 
HETATM   33  C34   D T2602       1.972   3.626  10.166  1.00 97.44     0.185 A 
HETATM   34  C37   D T2602       3.761   2.519   9.555  1.00101.07     0.125 A 
HETATM   35  N35   D T2602       3.203   4.309   9.947  1.00 99.25    -0.129 NA
HETATM   36  N38   D T2602       0.734   3.939  10.524  1.00 99.75    -0.223 NA
HETATM   37  N36   D T2602       4.288   3.676   9.582  1.00101.72    -0.145 NA
HETATM   38  C39   D T2602      -0.152   2.880  10.602  1.00 98.74     0.109 A 
ENDBRANCH  29  30
ENDBRANCH  24  28
ENDBRANCH   2  22
TORSDOF 7
ENDMDL
MODEL 5
REMARK VINA RESULT:    -9.153      1.522      2.084
REMARK INTER + INTRA:         -13.667
REMARK INTER:                 -12.977
REMARK INTRA:                  -0.690
REMARK UNBOUND:                -0.768
REMARK  7 active torsions:
REMARK  status: ('A' for Active; 'I' for Inactive)
REMARK    1  A    between atoms: C13_1  and  C25_21 
REMARK    2  A    between atoms: C17_3  and  C14_7 
REMARK    3  A    between atoms: C17_3  and  N18_33 
REMARK    4  A    between atoms: C11_5  and  N10_10 
REMARK       I    between atoms: N10_10  and  C08_17 
REMARK    5  A    between atoms: C03_12  and  C29_22 
REMARK    6  A    between atoms: C05_14  and  C08_17 
REMARK    7  A    between atoms: C30_23  and  C31_24 
ROOT
HETATM    1  N10   D T2602      -0.150  -0.995  11.758  1.00 94.57    -0.208 NA
HETATM    2  C08   D T2602      -1.165  -1.062  10.708  1.00 96.06     0.279 C 
HETATM    3  O09   D T2602      -1.092  -0.353   9.770  1.00 99.47    -0.265 OA
ENDROOT
BRANCH   1   4
HETATM    4  C11   D T2602       0.973  -0.031  11.645  1.00 98.39     0.085 A 
HETATM    5  C12   D T2602       0.712   1.333  11.599  1.00102.66     0.023 A 
HETATM    6  C13   D T2602       1.745   2.288  11.496  1.00102.89     0.071 A 
HETATM    7  C14   D T2602       3.097   1.838  11.440  1.00103.19     0.015 A 
HETATM    8  C15   D T2602       3.335   0.463  11.492  1.00105.74    -0.001 A 
HETATM    9  C16   D T2602       2.288  -0.467  11.593  1.00102.06     0.019 A 
BRANCH   6  10
HETATM   10  C25   D T2602       1.381   3.776  11.444  1.00102.82     0.419 C 
HETATM   11  F26   D T2602       1.940   4.398  12.517  1.00107.06    -0.166 F 
HETATM   12  F27   D T2602       1.874   4.340  10.308  1.00102.60    -0.166 F 
HETATM   13  F28   D T2602       0.028   3.931  11.496  1.00103.37    -0.166 F 
ENDBRANCH   6  10
BRANCH   7  14
HETATM   14  C17   D T2602       4.290   2.855  11.328  1.00100.67     0.277 C 
BRANCH  14  15
HETATM   15  N18   D T2602       5.100   2.515  10.329  1.00104.04     0.146 N 
HETATM   16  C19   D T2602       6.326   2.455  10.794  1.00107.77     0.286 C 
HETATM   17  C20   D T2602       7.440   2.776   9.786  1.00107.78     0.286 C 
HETATM   18  N21   D T2602       7.003   2.531   8.567  1.00106.92     0.143 N 
HETATM   19  C22   D T2602       6.052   3.396   8.295  1.00103.68     0.286 C 
HETATM   20  C24   D T2602       7.987   2.666   7.728  1.00105.81     0.285 C 
HETATM   21  C23   D T2602       4.914   3.315   9.317  1.00104.89     0.286 C 
ENDBRANCH  14  15
ENDBRANCH   7  14
ENDBRANCH   1   4
BRANCH   2  22
HETATM   22  C05   D T2602      -2.345  -2.054  10.823  1.00 96.97     0.059 A 
HETATM   23  C04   D T2602      -2.086  -3.373  11.163  1.00 99.17     0.013 A 
HETATM   24  C03   D T2602      -3.127  -4.275  11.267  1.00 96.89     0.042 A 
HETATM   25  C02   D T2602      -4.428  -3.863  11.025  1.00 99.79     0.008 A 
HETATM   26  C07   D T2602      -4.684  -2.546  10.682  1.00100.07     0.001 A 
HETATM   27  C06   D T2602      -3.641  -1.637  10.579  1.00100.96     0.005 A 
BRANCH  24  28
HETATM   28  C29   D T2602      -2.845  -5.734  11.649  1.00 99.16    -0.059 C 
HETATM   29  C30   D T2602      -2.615  -6.867  11.953  1.00101.30    -0.058 C 
BRANCH  29  30
HETATM   30  C31   D T2602      -2.318  -8.319  12.363  1.00 99.24     0.061 A 
HETATM   31  C32   D T2602      -3.185  -9.037  13.162  1.00 99.88     0.015 A 
HETATM   32  C33   D T2602      -2.851 -10.284  13.472  1.00 95.59     0.059 A 
HETATM   33  C34   D T2602      -1.651 -10.886  13.004  1.00 97.44     0.185 A 
HETATM   34  C37   D T2602      -3.397 -11.376  14.234  1.00101.07     0.125 A 
HETATM   35  N35   D T2602      -1.776 -12.175  13.598  1.00 99.25    -0.129 NA
HETATM   36  N38   D T2602      -0.782 -10.249  12.232  1.00 99.75    -0.223 NA
HETATM   37  N36   D T2602      -2.806 -12.498  14.337  1.00101.72    -0.145 NA
HETATM   38  C39   D T2602      -1.116  -8.948  11.903  1.00 98.74     0.109 A 
ENDBRANCH  29  30
ENDBRANCH  24  28
ENDBRANCH   2  22
TORSDOF 7
ENDMDL
MODEL 6
REMARK VINA RESULT:    -9.118      4.889     12.178
REMARK INTER + INTRA:         -13.617
REMARK INTER:                 -12.913
REMARK INTRA:                  -0.704
REMARK UNBOUND:                -0.768
REMARK  7 active torsions:
REMARK  status: ('A' for Active; 'I' for Inactive)
REMARK    1  A    between atoms: C13_1  and  C25_21 
REMARK    2  A    between atoms: C17_3  and  C14_7 
REMARK    3  A    between atoms: C17_3  and  N18_33 
REMARK    4  A    between atoms: C11_5  and  N10_10 
REMARK       I    between atoms: N10_10  and  C08_17 
REMARK    5  A    between atoms: C03_12  and  C29_22 
REMARK    6  A    between atoms: C05_14  and  C08_17 
REMARK    7  A    between atoms: C30_23  and  C31_24 
ROOT
HETATM    1  N10   D T2602      -2.955  -6.722  12.022  1.00 94.57    -0.208 NA
HETATM    2  C08   D T2602      -3.444  -6.400  10.683  1.00 96.06     0.279 C 
HETATM    3  O09   D T2602      -3.350  -7.189   9.813  1.00 99.47    -0.265 OA
ENDROOT
BRANCH   1   4
HETATM    4  C11   D T2602      -2.333  -8.044  12.287  1.00 98.39     0.085 A 
HETATM    5  C12   D T2602      -2.913  -8.909  13.207  1.00102.66     0.023 A 
HETATM    6  C13   D T2602      -2.362 -10.176  13.490  1.00102.89     0.071 A 
HETATM    7  C14   D T2602      -1.176 -10.580  12.811  1.00103.19     0.015 A 
HETATM    8  C15   D T2602      -0.613  -9.696  11.888  1.00105.74    -0.001 A 
HETATM    9  C16   D T2602      -1.181  -8.439  11.625  1.00102.06     0.019 A 
BRANCH   6  10
HETATM   10  C25   D T2602      -3.053 -11.075  14.522  1.00102.82     0.419 C 
HETATM   11  F26   D T2602      -3.442 -12.225  13.907  1.00107.06    -0.166 F 
HETATM   12  F27   D T2602      -2.189 -11.389  15.525  1.00102.60    -0.166 F 
HETATM   13  F28   D T2602      -4.153 -10.449  15.028  1.00103.37    -0.166 F 
ENDBRANCH   6  10
BRANCH   7  14
HETATM   14  C17   D T2602      -0.518 -11.981  13.082  1.00100.67     0.277 C 
BRANCH  14  15
HETATM   15  N18   D T2602       0.778 -11.843  13.354  1.00104.04     0.146 N 
HETATM   16  C19   D T2602       1.423 -12.846  12.806  1.00107.77     0.286 C 
HETATM   17  C20   D T2602       2.711 -13.284  13.522  1.00107.78     0.286 C 
HETATM   18  N21   D T2602       3.188 -12.267  14.210  1.00106.92     0.143 N 
HETATM   19  C22   D T2602       2.344 -12.001  15.181  1.00103.68     0.286 C 
HETATM   20  C24   D T2602       4.348 -12.594  14.699  1.00105.81     0.285 C 
HETATM   21  C23   D T2602       0.946 -11.691  14.638  1.00104.89     0.286 C 
ENDBRANCH  14  15
ENDBRANCH   7  14
ENDBRANCH   1   4
BRANCH   2  22
HETATM   22  C05   D T2602      -4.083  -5.022  10.395  1.00 96.97     0.059 A 
HETATM   23  C04   D T2602      -3.320  -3.876  10.563  1.00 99.17     0.013 A 
HETATM   24  C03   D T2602      -3.874  -2.636  10.314  1.00 96.89     0.042 A 
HETATM   25  C02   D T2602      -5.193  -2.537   9.902  1.00 99.79     0.008 A 
HETATM   26  C07   D T2602      -5.954  -3.682   9.737  1.00100.07     0.001 A 
HETATM   27  C06   D T2602      -5.401  -4.928   9.984  1.00100.96     0.005 A 
BRANCH  24  28
HETATM   28  C29   D T2602      -3.031  -1.366  10.494  1.00 99.16    -0.059 C 
HETATM   29  C30   D T2602      -2.384  -0.374  10.645  1.00101.30    -0.058 C 
BRANCH  29  30
HETATM   30  C31   D T2602      -1.550   0.901  10.859  1.00 99.24     0.061 A 
HETATM   31  C32   D T2602      -0.905   1.152  12.053  1.00 99.88     0.015 A 
HETATM   32  C33   D T2602      -0.208   2.278  12.155  1.00 95.59     0.059 A 
HETATM   33  C34   D T2602      -0.107   3.206  11.083  1.00 97.44     0.185 A 
HETATM   34  C37   D T2602       0.595   2.949  13.143  1.00101.07     0.125 A 
HETATM   35  N35   D T2602       0.722   4.193  11.691  1.00 99.25    -0.129 NA
HETATM   36  N38   D T2602      -0.700   3.019   9.912  1.00 99.75    -0.223 NA
HETATM   37  N36   D T2602       1.156   4.068  12.919  1.00101.72    -0.145 NA
HETATM   38  C39   D T2602      -1.431   1.851   9.793  1.00 98.74     0.109 A 
ENDBRANCH  29  30
ENDBRANCH  24  28
ENDBRANCH   2  22
TORSDOF 7
ENDMDL
MODEL 7
REMARK VINA RESULT:    -9.106      4.353     12.820
REMARK INTER + INTRA:         -13.601
REMARK INTER:                 -12.815
REMARK INTRA:                  -0.786
REMARK UNBOUND:                -0.768
REMARK  7 active torsions:
REMARK  status: ('A' for Active; 'I' for Inactive)
REMARK    1  A    between atoms: C13_1  and  C25_21 
REMARK    2  A    between atoms: C17_3  and  C14_7 
REMARK    3  A    between atoms: C17_3  and  N18_33 
REMARK    4  A    between atoms: C11_5  and  N10_10 
REMARK       I    between atoms: N10_10  and  C08_17 
REMARK    5  A    between atoms: C03_12  and  C29_22 
REMARK    6  A    between atoms: C05_14  and  C08_17 
REMARK    7  A    between atoms: C30_23  and  C31_24 
ROOT
HETATM    1  N10   D T2602      -3.494  -6.668  11.407  1.00 94.57    -0.208 NA
HETATM    2  C08   D T2602      -2.768  -5.440  11.726  1.00 96.06     0.279 C 
HETATM    3  O09   D T2602      -1.814  -5.480  12.416  1.00 99.47    -0.265 OA
ENDROOT
BRANCH   1   4
HETATM    4  C11   D T2602      -3.034  -7.968  11.957  1.00 98.39     0.085 A 
HETATM    5  C12   D T2602      -1.926  -8.599  11.405  1.00102.66     0.023 A 
HETATM    6  C13   D T2602      -1.448  -9.833  11.894  1.00102.89     0.071 A 
HETATM    7  C14   D T2602      -2.122 -10.447  12.990  1.00103.19     0.015 A 
HETATM    8  C15   D T2602      -3.229  -9.792  13.532  1.00105.74    -0.001 A 
HETATM    9  C16   D T2602      -3.686  -8.565  13.025  1.00102.06     0.019 A 
BRANCH   6  10
HETATM   10  C25   D T2602      -0.225 -10.474  11.230  1.00102.82     0.419 C 
HETATM   11  F26   D T2602       0.803 -10.476  12.122  1.00107.06    -0.166 F 
HETATM   12  F27   D T2602      -0.500 -11.759  10.881  1.00102.60    -0.166 F 
HETATM   13  F28   D T2602       0.143  -9.757  10.131  1.00103.37    -0.166 F 
ENDBRANCH   6  10
BRANCH   7  14
HETATM   14  C17   D T2602      -1.634 -11.819  13.581  1.00100.67     0.277 C 
BRANCH  14  15
HETATM   15  N18   D T2602      -1.755 -11.826  14.906  1.00104.04     0.146 N 
HETATM   16  C19   D T2602      -0.570 -11.614  15.430  1.00107.77     0.286 C 
HETATM   17  C20   D T2602      -0.326 -12.247  16.808  1.00107.78     0.286 C 
HETATM   18  N21   D T2602      -1.482 -12.418  17.416  1.00106.92     0.143 N 
HETATM   19  C22   D T2602      -2.161 -13.325  16.752  1.00103.68     0.286 C 
HETATM   20  C24   D T2602      -1.266 -12.819  18.634  1.00105.81     0.285 C 
HETATM   21  C23   D T2602      -2.361 -12.915  15.289  1.00104.89     0.286 C 
ENDBRANCH  14  15
ENDBRANCH   7  14
ENDBRANCH   1   4
BRANCH   2  22
HETATM   22  C05   D T2602      -3.247  -4.081  11.167  1.00 96.97     0.059 A 
HETATM   23  C04   D T2602      -2.351  -3.024  11.101  1.00 99.17     0.013 A 
HETATM   24  C03   D T2602      -2.761  -1.802  10.608  1.00 96.89     0.042 A 
HETATM   25  C02   D T2602      -4.070  -1.629  10.187  1.00 99.79     0.008 A 
HETATM   26  C07   D T2602      -4.964  -2.684  10.257  1.00100.07     0.001 A 
HETATM   27  C06   D T2602      -4.555  -3.913  10.749  1.00100.96     0.005 A 
BRANCH  24  28
HETATM   28  C29   D T2602      -1.771  -0.632  10.528  1.00 99.16    -0.059 C 
HETATM   29  C30   D T2602      -0.995   0.274  10.478  1.00101.30    -0.058 C 
BRANCH  29  30
HETATM   30  C31   D T2602       0.019   1.429  10.417  1.00 99.24     0.061 A 
HETATM   31  C32   D T2602       1.325   1.225  10.018  1.00 99.88     0.015 A 
HETATM   32  C33   D T2602       2.136   2.276   9.996  1.00 95.59     0.059 A 
HETATM   33  C34   D T2602       1.699   3.579  10.360  1.00 97.44     0.185 A 
HETATM   34  C37   D T2602       3.510   2.556   9.671  1.00101.07     0.125 A 
HETATM   35  N35   D T2602       2.909   4.306  10.164  1.00 99.25    -0.129 NA
HETATM   36  N38   D T2602       0.458   3.838  10.747  1.00 99.75    -0.223 NA
HETATM   37  N36   D T2602       4.006   3.724   9.755  1.00101.72    -0.145 NA
HETATM   38  C39   D T2602      -0.398   2.752  10.777  1.00 98.74     0.109 A 
ENDBRANCH  29  30
ENDBRANCH  24  28
ENDBRANCH   2  22
TORSDOF 7
ENDMDL
MODEL 8
REMARK VINA RESULT:    -8.894      5.812     12.141
REMARK INTER + INTRA:         -13.302
REMARK INTER:                 -12.528
REMARK INTRA:                  -0.773
REMARK UNBOUND:                -0.768
REMARK  7 active torsions:
REMARK  status: ('A' for Active; 'I' for Inactive)
REMARK    1  A    between atoms: C13_1  and  C25_21 
REMARK    2  A    between atoms: C17_3  and  C14_7 
REMARK    3  A    between atoms: C17_3  and  N18_33 
REMARK    4  A    between atoms: C11_5  and  N10_10 
REMARK       I    between atoms: N10_10  and  C08_17 
REMARK    5  A    between atoms: C03_12  and  C29_22 
REMARK    6  A    between atoms: C05_14  and  C08_17 
REMARK    7  A    between atoms: C30_23  and  C31_24 
ROOT
HETATM    1  N10   D T2602      -0.747  -7.102  11.401  1.00 94.57    -0.208 NA
HETATM    2  C08   D T2602      -2.090  -6.894  11.939  1.00 96.06     0.279 C 
HETATM    3  O09   D T2602      -2.524  -7.632  12.748  1.00 99.47    -0.265 OA
ENDROOT
BRANCH   1   4
HETATM    4  C11   D T2602       0.071  -8.248  11.870  1.00 98.39     0.085 A 
HETATM    5  C12   D T2602      -0.189  -9.526  11.390  1.00102.66     0.023 A 
HETATM    6  C13   D T2602       0.563 -10.646  11.802  1.00102.89     0.071 A 
HETATM    7  C14   D T2602       1.622 -10.459  12.738  1.00103.19     0.015 A 
HETATM    8  C15   D T2602       1.868  -9.166  13.203  1.00105.74    -0.001 A 
HETATM    9  C16   D T2602       1.103  -8.068  12.778  1.00102.06     0.019 A 
BRANCH   6  10
HETATM   10  C25   D T2602       0.215 -12.027  11.235  1.00102.82     0.419 C 
HETATM   11  F26   D T2602       1.161 -12.373  10.321  1.00107.06    -0.166 F 
HETATM   12  F27   D T2602       0.210 -12.955  12.230  1.00102.60    -0.166 F 
HETATM   13  F28   D T2602      -1.002 -11.989  10.623  1.00103.37    -0.166 F 
ENDBRANCH   6  10
BRANCH   7  14
HETATM   14  C17   D T2602       2.497 -11.668  13.232  1.00100.67     0.277 C 
BRANCH  14  15
HETATM   15  N18   D T2602       3.741 -11.563  12.771  1.00104.04     0.146 N 
HETATM   16  C19   D T2602       3.938 -12.521  11.896  1.00107.77     0.286 C 
HETATM   17  C20   D T2602       5.384 -13.027  11.774  1.00107.78     0.286 C 
HETATM   18  N21   D T2602       6.208 -12.075  12.162  1.00106.92     0.143 N 
HETATM   19  C22   D T2602       6.033 -11.885  13.450  1.00103.68     0.286 C 
HETATM   20  C24   D T2602       7.431 -12.451  11.925  1.00105.81     0.285 C 
HETATM   21  C23   D T2602       4.580 -11.520  13.768  1.00104.89     0.286 C 
ENDBRANCH  14  15
ENDBRANCH   7  14
ENDBRANCH   1   4
BRANCH   2  22
HETATM   22  C05   D T2602      -2.954  -5.710  11.448  1.00 96.97     0.059 A 
HETATM   23  C04   D T2602      -2.394  -4.442  11.393  1.00 99.17     0.013 A 
HETATM   24  C03   D T2602      -3.151  -3.372  10.960  1.00 96.89     0.042 A 
HETATM   25  C02   D T2602      -4.472  -3.563  10.588  1.00 99.79     0.008 A 
HETATM   26  C07   D T2602      -5.031  -4.829  10.646  1.00100.07     0.001 A 
HETATM   27  C06   D T2602      -4.273  -5.906  11.078  1.00100.96     0.005 A 
BRANCH  24  28
HETATM   28  C29   D T2602      -2.533  -1.969  10.893  1.00 99.16    -0.059 C 
HETATM   29  C30   D T2602      -2.043  -0.880  10.852  1.00101.30    -0.058 C 
BRANCH  29  30
HETATM   30  C31   D T2602      -1.396   0.514  10.798  1.00 99.24     0.061 A 
HETATM   31  C32   D T2602      -0.373   0.870  11.654  1.00 99.88     0.015 A 
HETATM   32  C33   D T2602       0.129   2.094  11.543  1.00 95.59     0.059 A 
HETATM   33  C34   D T2602      -0.349   3.025  10.580  1.00 97.44     0.185 A 
HETATM   34  C37   D T2602       1.149   2.890  12.174  1.00101.07     0.125 A 
HETATM   35  N35   D T2602       0.496   4.134  10.872  1.00 99.25    -0.129 NA
HETATM   36  N38   D T2602      -1.325   2.740   9.729  1.00 99.75    -0.223 NA
HETATM   37  N36   D T2602       1.399   4.085  11.818  1.00101.72    -0.145 NA
HETATM   38  C39   D T2602      -1.858   1.468   9.835  1.00 98.74     0.109 A 
ENDBRANCH  29  30
ENDBRANCH  24  28
ENDBRANCH   2  22
TORSDOF 7
ENDMDL
MODEL 9
REMARK VINA RESULT:    -8.805      2.803      3.594
REMARK INTER + INTRA:         -13.177
REMARK INTER:                 -12.298
REMARK INTRA:                  -0.879
REMARK UNBOUND:                -0.768
REMARK  7 active torsions:
REMARK  status: ('A' for Active; 'I' for Inactive)
REMARK    1  A    between atoms: C13_1  and  C25_21 
REMARK    2  A    between atoms: C17_3  and  C14_7 
REMARK    3  A    between atoms: C17_3  and  N18_33 
REMARK    4  A    between atoms: C11_5  and  N10_10 
REMARK       I    between atoms: N10_10  and  C08_17 
REMARK    5  A    between atoms: C03_12  and  C29_22 
REMARK    6  A    between atoms: C05_14  and  C08_17 
REMARK    7  A    between atoms: C30_23  and  C31_24 
ROOT
HETATM    1  N10   D T2602       0.726  -1.038  11.301  1.00 94.57    -0.208 NA
HETATM    2  C08   D T2602      -0.480  -0.906  10.486  1.00 96.06     0.279 C 
HETATM    3  O09   D T2602      -0.519  -0.117   9.612  1.00 99.47    -0.265 OA
ENDROOT
BRANCH   1   4
HETATM    4  C11   D T2602       1.904  -0.174  11.031  1.00 98.39     0.085 A 
HETATM    5  C12   D T2602       2.964  -0.665  10.278  1.00102.66     0.023 A 
HETATM    6  C13   D T2602       4.101   0.118   9.992  1.00102.89     0.071 A 
HETATM    7  C14   D T2602       4.163   1.453  10.489  1.00103.19     0.015 A 
HETATM    8  C15   D T2602       3.084   1.925  11.239  1.00105.74    -0.001 A 
HETATM    9  C16   D T2602       1.964   1.125  11.512  1.00102.06     0.019 A 
BRANCH   6  10
HETATM   10  C25   D T2602       5.236  -0.492   9.161  1.00102.82     0.419 C 
HETATM   11  F26   D T2602       6.415  -0.263   9.799  1.00107.06    -0.166 F 
HETATM   12  F27   D T2602       5.059  -1.836   9.041  1.00102.60    -0.166 F 
HETATM   13  F28   D T2602       5.278   0.088   7.928  1.00103.37    -0.166 F 
ENDBRANCH   6  10
BRANCH   7  14
HETATM   14  C17   D T2602       5.403   2.374  10.201  1.00100.67     0.277 C 
BRANCH  14  15
HETATM   15  N18   D T2602       5.017   3.509   9.623  1.00104.04     0.146 N 
HETATM   16  C19   D T2602       5.049   3.342   8.322  1.00107.77     0.286 C 
HETATM   17  C20   D T2602       5.333   4.604   7.493  1.00107.78     0.286 C 
HETATM   18  N21   D T2602       4.969   5.665   8.184  1.00106.92     0.143 N 
HETATM   19  C22   D T2602       5.766   5.767   9.224  1.00103.68     0.286 C 
HETATM   20  C24   D T2602       5.076   6.719   7.429  1.00105.81     0.285 C 
HETATM   21  C23   D T2602       5.721   4.503  10.088  1.00104.89     0.286 C 
ENDBRANCH  14  15
ENDBRANCH   7  14
ENDBRANCH   1   4
BRANCH   2  22
HETATM   22  C05   D T2602      -1.714  -1.793  10.768  1.00 96.97     0.059 A 
HETATM   23  C04   D T2602      -1.527  -3.127  11.092  1.00 99.17     0.013 A 
HETATM   24  C03   D T2602      -2.617  -3.936  11.344  1.00 96.89     0.042 A 
HETATM   25  C02   D T2602      -3.899  -3.415  11.264  1.00 99.79     0.008 A 
HETATM   26  C07   D T2602      -4.085  -2.082  10.937  1.00100.07     0.001 A 
HETATM   27  C06   D T2602      -2.992  -1.267  10.686  1.00100.96     0.005 A 
BRANCH  24  28
HETATM   28  C29   D T2602      -2.413  -5.412  11.709  1.00 99.16    -0.059 C 
HETATM   29  C30   D T2602      -2.257  -6.559  12.006  1.00101.30    -0.058 C 
BRANCH  29  30
HETATM   30  C31   D T2602      -2.073  -8.035  12.399  1.00 99.24     0.061 A 
HETATM   31  C32   D T2602      -2.989  -8.691  13.197  1.00 99.88     0.015 A 
HETATM   32  C33   D T2602      -2.753  -9.964  13.491  1.00 95.59     0.059 A 
HETATM   33  C34   D T2602      -1.608 -10.654  13.008  1.00 97.44     0.185 A 
HETATM   34  C37   D T2602      -3.379 -11.018  14.246  1.00101.07     0.125 A 
HETATM   35  N35   D T2602      -1.831 -11.935  13.589  1.00 99.25    -0.129 NA
HETATM   36  N38   D T2602      -0.696 -10.079  12.235  1.00 99.75    -0.223 NA
HETATM   37  N36   D T2602      -2.878 -12.183  14.333  1.00101.72    -0.145 NA
HETATM   38  C39   D T2602      -0.928  -8.752  11.923  1.00 98.74     0.109 A 
ENDBRANCH  29  30
ENDBRANCH  24  28
ENDBRANCH   2  22
TORSDOF 7
ENDMDL
