MODEL 1
REMARK VINA RESULT:      -6.7      0.000      0.000
REMARK  2 active torsions:
REMARK  status: ('A' for Active; 'I' for Inactive)
REMARK    1  A    between atoms: C5_4  and  O7_13 
REMARK    2  A    between atoms: C8_10  and  O7_13 
ROOT
HETATM    1  O7    D T 502       0.829   5.596   9.328  1.00 24.96    -0.304 OA
ENDROOT
BRANCH   1   2
HETATM    2  C5    D T 502       0.232   5.902   8.144  1.00 24.69     0.125 A 
HETATM    3  C6    D T 502      -0.603   4.960   7.561  1.00 25.95     0.154 A 
HETATM    4  C1    D T 502      -1.304   5.273   6.373  1.00 27.27     0.041 A 
HETATM    5  O17   D T 502      -0.701   3.720   8.147  1.00 23.71    -0.188 OA
HETATM    6  C2    D T 502      -1.147   6.538   5.792  1.00 21.79     0.060 A 
HETATM    7  C3    D T 502      -0.297   7.477   6.377  1.00 27.99     0.014 A 
HETATM    8 CL14   D T 502      -2.006   6.943   4.362  1.00  9.14    -0.082 Cl
HETATM    9  C4    D T 502       0.395   7.162   7.566  1.00 29.15     0.028 A 
ENDBRANCH   1   2
BRANCH   1  10
HETATM   10  C8    D T 502       2.153   5.262   9.338  1.00 22.86     0.111 A 
HETATM   11  C9    D T 502       2.539   4.070  10.018  1.00 16.25     0.081 A 
HETATM   12  C10   D T 502       3.896   3.710  10.066  1.00 16.94     0.025 A 
HETATM   13 CL16   D T 502       1.364   3.083  10.818  1.00  2.00    -0.080 Cl
HETATM   14  C11   D T 502       4.866   4.538   9.439  1.00 21.46     0.059 A 
HETATM   15  C12   D T 502       4.479   5.724   8.762  1.00 21.21     0.013 A 
HETATM   16 CL15   D T 502       6.538   4.107   9.523  1.00  9.25    -0.082 Cl
HETATM   17  C13   D T 502       3.120   6.085   8.712  1.00 21.49     0.026 A 
ENDBRANCH   1  10
TORSDOF 2
ENDMDL
MODEL 2
REMARK VINA RESULT:      -6.7      1.857      6.335
REMARK  2 active torsions:
REMARK  status: ('A' for Active; 'I' for Inactive)
REMARK    1  A    between atoms: C5_4  and  O7_13 
REMARK    2  A    between atoms: C8_10  and  O7_13 
ROOT
HETATM    1  O7    D T 502       2.122   7.265   8.133  1.00 24.96    -0.304 OA
ENDROOT
BRANCH   1   2
HETATM    2  C5    D T 502       2.855   6.250   8.665  1.00 24.69     0.125 A 
HETATM    3  C6    D T 502       3.942   5.770   7.948  1.00 25.95     0.154 A 
HETATM    4  C1    D T 502       4.774   4.773   8.505  1.00 27.27     0.041 A 
HETATM    5  O17   D T 502       4.159   6.264   6.683  1.00 23.71    -0.188 OA
HETATM    6  C2    D T 502       4.494   4.274   9.783  1.00 21.79     0.060 A 
HETATM    7  C3    D T 502       3.394   4.753  10.495  1.00 27.99     0.014 A 
HETATM    8 CL14   D T 502       5.506   3.079  10.485  1.00  9.14    -0.082 Cl
HETATM    9  C4    D T 502       2.569   5.753   9.938  1.00 29.15     0.028 A 
ENDBRANCH   1   2
BRANCH   1  10
HETATM   10  C8    D T 502       1.064   6.966   7.323  1.00 22.86     0.111 A 
HETATM   11  C9    D T 502       0.795   7.833   6.223  1.00 16.25     0.081 A 
HETATM   12  C10   D T 502      -0.300   7.567   5.385  1.00 16.94     0.025 A 
HETATM   13 CL16   D T 502       1.774   9.231   5.933  1.00  2.00    -0.080 Cl
HETATM   14  C11   D T 502      -1.126   6.440   5.642  1.00 21.46     0.059 A 
HETATM   15  C12   D T 502      -0.856   5.578   6.737  1.00 21.21     0.013 A 
HETATM   16 CL15   D T 502      -2.488   6.129   4.624  1.00  9.25    -0.082 Cl
HETATM   17  C13   D T 502       0.241   5.842   7.577  1.00 21.49     0.026 A 
ENDBRANCH   1  10
TORSDOF 2
ENDMDL
MODEL 3
REMARK VINA RESULT:      -6.7      1.971      2.925
REMARK  2 active torsions:
REMARK  status: ('A' for Active; 'I' for Inactive)
REMARK    1  A    between atoms: C5_4  and  O7_13 
REMARK    2  A    between atoms: C8_10  and  O7_13 
ROOT
HETATM    1  O7    D T 502       2.339   7.459   8.016  1.00 24.96    -0.304 OA
ENDROOT
BRANCH   1   2
HETATM    2  C5    D T 502       1.220   7.165   7.300  1.00 24.69     0.125 A 
HETATM    3  C6    D T 502       0.910   7.953   6.201  1.00 25.95     0.154 A 
HETATM    4  C1    D T 502      -0.199   7.628   5.386  1.00 27.27     0.041 A 
HETATM    5  O17   D T 502       1.683   9.063   5.954  1.00 23.71    -0.188 OA
HETATM    6  C2    D T 502      -0.979   6.507   5.697  1.00 21.79     0.060 A 
HETATM    7  C3    D T 502      -0.669   5.725   6.809  1.00 27.99     0.014 A 
HETATM    8 CL14   D T 502      -2.316   6.085   4.707  1.00  9.14    -0.082 Cl
HETATM    9  C4    D T 502       0.443   6.049   7.617  1.00 29.15     0.028 A 
ENDBRANCH   1   2
BRANCH   1  10
HETATM   10  C8    D T 502       3.044   6.443   8.595  1.00 22.86     0.111 A 
HETATM   11  C9    D T 502       4.107   5.855   7.850  1.00 16.25     0.081 A 
HETATM   12  C10   D T 502       4.837   4.792   8.408  1.00 16.94     0.025 A 
HETATM   13 CL16   D T 502       4.484   6.405   6.253  1.00  2.00    -0.080 Cl
HETATM   14  C11   D T 502       4.506   4.316   9.704  1.00 21.46     0.059 A 
HETATM   15  C12   D T 502       3.447   4.904  10.445  1.00 21.21     0.013 A 
HETATM   16 CL15   D T 502       5.388   2.991  10.378  1.00  9.25    -0.082 Cl
HETATM   17  C13   D T 502       2.716   5.969   9.888  1.00 21.49     0.026 A 
ENDBRANCH   1  10
TORSDOF 2
ENDMDL
MODEL 4
REMARK VINA RESULT:      -6.6      2.391      3.104
REMARK  2 active torsions:
REMARK  status: ('A' for Active; 'I' for Inactive)
REMARK    1  A    between atoms: C5_4  and  O7_13 
REMARK    2  A    between atoms: C8_10  and  O7_13 
ROOT
HETATM    1  O7    D T 502       2.311   8.008   7.402  1.00 24.96    -0.304 OA
ENDROOT
BRANCH   1   2
HETATM    2  C5    D T 502       1.168   7.593   6.792  1.00 24.69     0.125 A 
HETATM    3  C6    D T 502       0.683   8.331   5.722  1.00 25.95     0.154 A 
HETATM    4  C1    D T 502      -0.456   7.886   5.012  1.00 27.27     0.041 A 
HETATM    5  O17   D T 502       1.314   9.510   5.401  1.00 23.71    -0.188 OA
HETATM    6  C2    D T 502      -1.088   6.696   5.396  1.00 21.79     0.060 A 
HETATM    7  C3    D T 502      -0.601   5.964   6.480  1.00 27.99     0.014 A 
HETATM    8 CL14   D T 502      -2.458   6.128   4.533  1.00  9.14    -0.082 Cl
HETATM    9  C4    D T 502       0.539   6.409   7.182  1.00 29.15     0.028 A 
ENDBRANCH   1   2
BRANCH   1  10
HETATM   10  C8    D T 502       3.425   7.222   7.332  1.00 22.86     0.111 A 
HETATM   11  C9    D T 502       3.792   6.473   8.488  1.00 16.25     0.081 A 
HETATM   12  C10   D T 502       4.946   5.672   8.456  1.00 16.94     0.025 A 
HETATM   13 CL16   D T 502       2.859   6.568   9.942  1.00  2.00    -0.080 Cl
HETATM   14  C11   D T 502       5.734   5.620   7.275  1.00 21.46     0.059 A 
HETATM   15  C12   D T 502       5.366   6.367   6.124  1.00 21.21     0.013 A 
HETATM   16 CL15   D T 502       7.167   4.655   7.246  1.00  9.25    -0.082 Cl
HETATM   17  C13   D T 502       4.210   7.168   6.155  1.00 21.49     0.026 A 
ENDBRANCH   1  10
TORSDOF 2
ENDMDL
MODEL 5
REMARK VINA RESULT:      -6.6      3.361      5.551
REMARK  2 active torsions:
REMARK  status: ('A' for Active; 'I' for Inactive)
REMARK    1  A    between atoms: C5_4  and  O7_13 
REMARK    2  A    between atoms: C8_10  and  O7_13 
ROOT
HETATM    1  O7    D T 502       3.517   7.382   8.448  1.00 24.96    -0.304 OA
ENDROOT
BRANCH   1   2
HETATM    2  C5    D T 502       4.284   7.465   7.327  1.00 24.69     0.125 A 
HETATM    3  C6    D T 502       4.413   8.697   6.703  1.00 25.95     0.154 A 
HETATM    4  C1    D T 502       5.267   8.839   5.584  1.00 27.27     0.041 A 
HETATM    5  O17   D T 502       3.670   9.752   7.177  1.00 23.71    -0.188 OA
HETATM    6  C2    D T 502       5.978   7.728   5.113  1.00 21.79     0.060 A 
HETATM    7  C3    D T 502       5.836   6.489   5.739  1.00 27.99     0.014 A 
HETATM    8 CL14   D T 502       7.036   7.886   3.771  1.00  9.14    -0.082 Cl
HETATM    9  C4    D T 502       4.988   6.354   6.859  1.00 29.15     0.028 A 
ENDBRANCH   1   2
BRANCH   1  10
HETATM   10  C8    D T 502       2.341   6.689   8.398  1.00 22.86     0.111 A 
HETATM   11  C9    D T 502       2.158   5.611   9.312  1.00 16.25     0.081 A 
HETATM   12  C10   D T 502       0.969   4.864   9.271  1.00 16.94     0.025 A 
HETATM   13 CL16   D T 502       3.396   5.186  10.444  1.00  2.00    -0.080 Cl
HETATM   14  C11   D T 502      -0.034   5.189   8.319  1.00 21.46     0.059 A 
HETATM   15  C12   D T 502       0.151   6.264   7.409  1.00 21.21     0.013 A 
HETATM   16 CL15   D T 502      -1.484   4.252   8.252  1.00  9.25    -0.082 Cl
HETATM   17  C13   D T 502       1.340   7.014   7.450  1.00 21.49     0.026 A 
ENDBRANCH   1  10
TORSDOF 2
ENDMDL
MODEL 6
REMARK VINA RESULT:      -6.6      3.605      4.962
REMARK  2 active torsions:
REMARK  status: ('A' for Active; 'I' for Inactive)
REMARK    1  A    between atoms: C5_4  and  O7_13 
REMARK    2  A    between atoms: C8_10  and  O7_13 
ROOT
HETATM    1  O7    D T 502       2.896   8.152   7.974  1.00 24.96    -0.304 OA
ENDROOT
BRANCH   1   2
HETATM    2  C5    D T 502       3.444   8.153   6.729  1.00 24.69     0.125 A 
HETATM    3  C6    D T 502       3.159   9.213   5.880  1.00 25.95     0.154 A 
HETATM    4  C1    D T 502       3.775   9.289   4.610  1.00 27.27     0.041 A 
HETATM    5  O17   D T 502       2.246  10.155   6.294  1.00 23.71    -0.188 OA
HETATM    6  C2    D T 502       4.672   8.288   4.216  1.00 21.79     0.060 A 
HETATM    7  C3    D T 502       4.947   7.219   5.070  1.00 27.99     0.014 A 
HETATM    8 CL14   D T 502       5.446   8.375   2.687  1.00  9.14    -0.082 Cl
HETATM    9  C4    D T 502       4.334   7.150   6.339  1.00 29.15     0.028 A 
ENDBRANCH   1   2
BRANCH   1  10
HETATM   10  C8    D T 502       2.509   6.966   8.528  1.00 22.86     0.111 A 
HETATM   11  C9    D T 502       1.262   6.409   8.118  1.00 16.25     0.081 A 
HETATM   12  C10   D T 502       0.824   5.201   8.687  1.00 16.94     0.025 A 
HETATM   13 CL16   D T 502       0.264   7.220   6.961  1.00  2.00    -0.080 Cl
HETATM   14  C11   D T 502       1.626   4.551   9.663  1.00 21.46     0.059 A 
HETATM   15  C12   D T 502       2.867   5.108  10.070  1.00 21.21     0.013 A 
HETATM   16 CL15   D T 502       1.072   3.079  10.380  1.00  9.25    -0.082 Cl
HETATM   17  C13   D T 502       3.308   6.317   9.500  1.00 21.49     0.026 A 
ENDBRANCH   1  10
TORSDOF 2
ENDMDL
MODEL 7
REMARK VINA RESULT:      -6.5      4.002      6.027
REMARK  2 active torsions:
REMARK  status: ('A' for Active; 'I' for Inactive)
REMARK    1  A    between atoms: C5_4  and  O7_13 
REMARK    2  A    between atoms: C8_10  and  O7_13 
ROOT
HETATM    1  O7    D T 502       1.098   8.918   5.891  1.00 24.96    -0.304 OA
ENDROOT
BRANCH   1   2
HETATM    2  C5    D T 502       2.200   9.003   5.098  1.00 24.69     0.125 A 
HETATM    3  C6    D T 502       3.386   9.455   5.658  1.00 25.95     0.154 A 
HETATM    4  C1    D T 502       4.570   9.480   4.886  1.00 27.27     0.041 A 
HETATM    5  O17   D T 502       3.367   9.904   6.958  1.00 23.71    -0.188 OA
HETATM    6  C2    D T 502       4.536   9.046   3.554  1.00 21.79     0.060 A 
HETATM    7  C3    D T 502       3.338   8.603   2.994  1.00 27.99     0.014 A 
HETATM    8 CL14   D T 502       5.967   9.049   2.608  1.00  9.14    -0.082 Cl
HETATM    9  C4    D T 502       2.159   8.574   3.770  1.00 29.15     0.028 A 
ENDBRANCH   1   2
BRANCH   1  10
HETATM   10  C8    D T 502       0.735   7.702   6.395  1.00 22.86     0.111 A 
HETATM   11  C9    D T 502      -0.435   7.080   5.869  1.00 16.25     0.081 A 
HETATM   12  C10   D T 502      -0.849   5.839   6.382  1.00 16.94     0.025 A 
HETATM   13 CL16   D T 502      -1.373   7.851   4.636  1.00  2.00    -0.080 Cl
HETATM   14  C11   D T 502      -0.100   5.222   7.419  1.00 21.46     0.059 A 
HETATM   15  C12   D T 502       1.065   5.843   7.942  1.00 21.21     0.013 A 
HETATM   16 CL15   D T 502      -0.626   3.708   8.067  1.00  9.25    -0.082 Cl
HETATM   17  C13   D T 502       1.481   7.085   7.428  1.00 21.49     0.026 A 
ENDBRANCH   1  10
TORSDOF 2
ENDMDL
MODEL 8
REMARK VINA RESULT:      -6.4      3.390      4.562
REMARK  2 active torsions:
REMARK  status: ('A' for Active; 'I' for Inactive)
REMARK    1  A    between atoms: C5_4  and  O7_13 
REMARK    2  A    between atoms: C8_10  and  O7_13 
ROOT
HETATM    1  O7    D T 502       3.368   7.502   8.483  1.00 24.96    -0.304 OA
ENDROOT
BRANCH   1   2
HETATM    2  C5    D T 502       2.270   6.704   8.382  1.00 24.69     0.125 A 
HETATM    3  C6    D T 502       2.079   5.716   9.337  1.00 25.95     0.154 A 
HETATM    4  C1    D T 502       0.909   4.922   9.312  1.00 27.27     0.041 A 
HETATM    5  O17   D T 502       3.065   5.513  10.274  1.00 23.71    -0.188 OA
HETATM    6  C2    D T 502      -0.052   5.141   8.317  1.00 21.79     0.060 A 
HETATM    7  C3    D T 502       0.150   6.130   7.353  1.00 27.99     0.014 A 
HETATM    8 CL14   D T 502      -1.488   4.203   8.283  1.00  9.14    -0.082 Cl
HETATM    9  C4    D T 502       1.317   6.924   7.386  1.00 29.15     0.028 A 
ENDBRANCH   1   2
BRANCH   1  10
HETATM   10  C8    D T 502       4.246   7.558   7.439  1.00 22.86     0.111 A 
HETATM   11  C9    D T 502       4.206   8.703   6.590  1.00 16.25     0.081 A 
HETATM   12  C10   D T 502       5.081   8.780   5.493  1.00 16.94     0.025 A 
HETATM   13 CL16   D T 502       3.069   9.977   6.868  1.00  2.00    -0.080 Cl
HETATM   14  C11   D T 502       5.991   7.719   5.242  1.00 21.46     0.059 A 
HETATM   15  C12   D T 502       6.029   6.580   6.089  1.00 21.21     0.013 A 
HETATM   16 CL15   D T 502       7.047   7.805   3.877  1.00  9.25    -0.082 Cl
HETATM   17  C13   D T 502       5.155   6.502   7.189  1.00 21.49     0.026 A 
ENDBRANCH   1  10
TORSDOF 2
ENDMDL
MODEL 9
REMARK VINA RESULT:      -6.2      3.431      4.555
REMARK  2 active torsions:
REMARK  status: ('A' for Active; 'I' for Inactive)
REMARK    1  A    between atoms: C5_4  and  O7_13 
REMARK    2  A    between atoms: C8_10  and  O7_13 
ROOT
HETATM    1  O7    D T 502       5.040   7.216   8.081  1.00 24.96    -0.304 OA
ENDROOT
BRANCH   1   2
HETATM    2  C5    D T 502       4.532   7.915   7.029  1.00 24.69     0.125 A 
HETATM    3  C6    D T 502       4.715   7.411   5.749  1.00 25.95     0.154 A 
HETATM    4  C1    D T 502       4.133   8.067   4.640  1.00 27.27     0.041 A 
HETATM    5  O17   D T 502       5.496   6.291   5.592  1.00 23.71    -0.188 OA
HETATM    6  C2    D T 502       3.373   9.226   4.844  1.00 21.79     0.060 A 
HETATM    7  C3    D T 502       3.202   9.734   6.132  1.00 27.99     0.014 A 
HETATM    8 CL14   D T 502       2.641  10.023   3.512  1.00  9.14    -0.082 Cl
HETATM    9  C4    D T 502       3.780   9.073   7.237  1.00 29.15     0.028 A 
ENDBRANCH   1   2
BRANCH   1  10
HETATM   10  C8    D T 502       4.246   6.306   8.718  1.00 22.86     0.111 A 
HETATM   11  C9    D T 502       4.759   4.990   8.914  1.00 16.25     0.081 A 
HETATM   12  C10   D T 502       3.959   4.023   9.546  1.00 16.94     0.025 A 
HETATM   13 CL16   D T 502       6.337   4.557   8.349  1.00  2.00    -0.080 Cl
HETATM   14  C11   D T 502       2.650   4.367   9.978  1.00 21.46     0.059 A 
HETATM   15  C12   D T 502       2.142   5.678   9.782  1.00 21.21     0.013 A 
HETATM   16 CL15   D T 502       1.658   3.168  10.732  1.00  9.25    -0.082 Cl
HETATM   17  C13   D T 502       2.943   6.647   9.152  1.00 21.49     0.026 A 
ENDBRANCH   1  10
TORSDOF 2
ENDMDL
