MODEL 1
REMARK VINA RESULT:      -6.8      0.000      0.000
REMARK  3 active torsions:
REMARK  status: ('A' for Active; 'I' for Inactive)
REMARK    1  A    between atoms: C7_8  and  C10_12 
REMARK    2  A    between atoms: N9_10  and  C1'_11 
REMARK    3  A    between atoms: C4'_19  and  C5'_21 
ROOT
HETATM    1  N1    D T 601       1.722   5.081   9.685  1.00 22.46    -0.210 NA
HETATM    2  C2    D T 601       2.831   5.858   9.925  1.00 17.33     0.201 A 
HETATM    3  N3    D T 601       3.116   6.906   9.085  1.00 21.38    -0.207 NA
HETATM    4  C4    D T 601       2.292   7.159   8.019  1.00 21.15     0.150 A 
HETATM    5  C5    D T 601       1.191   6.392   7.787  1.00 22.48     0.071 A 
HETATM    6  C6    D T 601       0.911   5.334   8.635  1.00 22.92     0.156 A 
HETATM    7  N6    D T 601      -0.047   4.273   8.850  1.00 23.12    -0.080 NA
HETATM    8  C7    D T 601       0.558   6.878   6.658  1.00 19.57     0.076 A 
HETATM    9  C8    D T 601       1.278   7.956   6.193  1.00 12.70     0.084 A 
HETATM   10  N9    D T 601       2.321   8.144   7.039  1.00 22.69    -0.287 N 
ENDROOT
BRANCH  10  11
HETATM   11  C1'   D T 601       3.411   9.132   6.933  1.00 23.36     0.240 C 
HETATM   12  C2'   D T 601       4.684   8.427   6.471  1.00 24.93     0.234 C 
HETATM   13  O2'   D T 601       5.801   9.196   6.887  1.00 35.12    -0.216 OA
HETATM   14  C3'   D T 601       4.512   8.505   4.969  1.00 25.54     0.216 C 
HETATM   15  O3'   D T 601       5.704   8.265   4.250  1.00 30.30    -0.218 OA
HETATM   16  C4'   D T 601       3.964   9.911   4.793  1.00 31.54     0.183 C 
HETATM   17  O4'   D T 601       3.081  10.079   5.937  1.00 29.87    -0.331 OA
BRANCH  16  18
HETATM   18  C5'   D T 601       3.211  10.186   3.515  1.00 31.76     0.214 C 
HETATM   19  O5'   D T 601       2.555   9.019   3.049  1.00 34.06    -0.218 OA
ENDBRANCH  16  18
ENDBRANCH  10  11
BRANCH   8  20
HETATM   20  C10   D T 601      -0.714   6.460   5.873  1.00 29.97     0.268 C 
HETATM   21  N11   D T 601      -1.131   7.254   4.696  1.00 35.69    -0.057 NA
HETATM   22  O12   D T 601      -1.362   5.477   6.224  1.00 30.21    -0.271 OA
ENDBRANCH   8  20
TORSDOF 3
ENDMDL
MODEL 2
REMARK VINA RESULT:      -6.7      1.534      1.749
REMARK  3 active torsions:
REMARK  status: ('A' for Active; 'I' for Inactive)
REMARK    1  A    between atoms: C7_8  and  C10_12 
REMARK    2  A    between atoms: N9_10  and  C1'_11 
REMARK    3  A    between atoms: C4'_19  and  C5'_21 
ROOT
HETATM    1  N1    D T 601       2.678   3.698  10.655  1.00 22.46    -0.210 NA
HETATM    2  C2    D T 601       3.843   4.428  10.676  1.00 17.33     0.201 A 
HETATM    3  N3    D T 601       3.962   5.533   9.870  1.00 21.38    -0.207 NA
HETATM    4  C4    D T 601       2.918   5.890   9.056  1.00 21.15     0.150 A 
HETATM    5  C5    D T 601       1.763   5.169   9.042  1.00 22.48     0.071 A 
HETATM    6  C6    D T 601       1.650   4.053   9.854  1.00 22.92     0.156 A 
HETATM    7  N6    D T 601       0.729   3.000  10.217  1.00 23.12    -0.080 NA
HETATM    8  C7    D T 601       0.899   5.758   8.138  1.00 19.57     0.076 A 
HETATM    9  C8    D T 601       1.531   6.854   7.592  1.00 12.70     0.084 A 
HETATM   10  N9    D T 601       2.752   6.949   8.172  1.00 22.69    -0.287 N 
ENDROOT
BRANCH  10  11
HETATM   11  C1'   D T 601       3.825   7.917   7.878  1.00 23.36     0.240 C 
HETATM   12  C2'   D T 601       4.791   7.305   6.866  1.00 24.93     0.234 C 
HETATM   13  O2'   D T 601       6.048   7.948   6.997  1.00 35.12    -0.216 OA
HETATM   14  C3'   D T 601       4.118   7.705   5.569  1.00 25.54     0.216 C 
HETATM   15  O3'   D T 601       4.961   7.603   4.440  1.00 30.30    -0.218 OA
HETATM   16  C4'   D T 601       3.675   9.126   5.875  1.00 31.54     0.183 C 
HETATM   17  O4'   D T 601       3.261   9.062   7.269  1.00 29.87    -0.331 OA
BRANCH  16  18
HETATM   18  C5'   D T 601       2.557   9.681   5.029  1.00 31.76     0.214 C 
HETATM   19  O5'   D T 601       1.679   8.651   4.606  1.00 34.06    -0.218 OA
ENDBRANCH  16  18
ENDBRANCH  10  11
BRANCH   8  20
HETATM   20  C10   D T 601      -0.540   5.433   7.655  1.00 29.97     0.268 C 
HETATM   21  N11   D T 601      -0.961   5.854   6.301  1.00 35.69    -0.057 NA
HETATM   22  O12   D T 601      -1.317   4.828   8.390  1.00 30.21    -0.271 OA
ENDBRANCH   8  20
TORSDOF 3
ENDMDL
MODEL 3
REMARK VINA RESULT:      -6.4      1.615      3.092
REMARK  3 active torsions:
REMARK  status: ('A' for Active; 'I' for Inactive)
REMARK    1  A    between atoms: C7_8  and  C10_12 
REMARK    2  A    between atoms: N9_10  and  C1'_11 
REMARK    3  A    between atoms: C4'_19  and  C5'_21 
ROOT
HETATM    1  N1    D T 601      -0.747   6.335   6.250  1.00 22.46    -0.210 NA
HETATM    2  C2    D T 601      -0.276   7.426   5.558  1.00 17.33     0.201 A 
HETATM    3  N3    D T 601       0.956   7.946   5.873  1.00 21.38    -0.207 NA
HETATM    4  C4    D T 601       1.694   7.370   6.874  1.00 21.15     0.150 A 
HETATM    5  C5    D T 601       1.228   6.285   7.553  1.00 22.48     0.071 A 
HETATM    6  C6    D T 601      -0.016   5.769   7.234  1.00 22.92     0.156 A 
HETATM    7  N6    D T 601      -0.936   4.715   7.598  1.00 23.12    -0.080 NA
HETATM    8  C7    D T 601       2.177   5.926   8.492  1.00 19.57     0.076 A 
HETATM    9  C8    D T 601       3.238   6.798   8.386  1.00 12.70     0.084 A 
HETATM   10  N9    D T 601       2.954   7.662   7.381  1.00 22.69    -0.287 N 
ENDROOT
BRANCH  10  11
HETATM   11  C1'   D T 601       3.749   8.818   6.925  1.00 23.36     0.240 C 
HETATM   12  C2'   D T 601       5.230   8.446   6.939  1.00 24.93     0.234 C 
HETATM   13  O2'   D T 601       5.992   9.637   7.047  1.00 35.12    -0.216 OA
HETATM   14  C3'   D T 601       5.374   7.842   5.558  1.00 25.54     0.216 C 
HETATM   15  O3'   D T 601       6.715   7.734   5.126  1.00 30.30    -0.218 OA
HETATM   16  C4'   D T 601       4.534   8.788   4.717  1.00 31.54     0.183 C 
HETATM   17  O4'   D T 601       3.411   9.110   5.583  1.00 29.87    -0.331 OA
BRANCH  16  18
HETATM   18  C5'   D T 601       4.033   8.254   3.398  1.00 31.76     0.214 C 
HETATM   19  O5'   D T 601       2.769   8.806   3.072  1.00 34.06    -0.218 OA
ENDBRANCH  16  18
ENDBRANCH  10  11
BRANCH   8  20
HETATM   20  C10   D T 601       2.258   4.809   9.568  1.00 29.97     0.268 C 
HETATM   21  N11   D T 601       3.543   4.109   9.788  1.00 35.69    -0.057 NA
HETATM   22  O12   D T 601       1.266   4.515  10.231  1.00 30.21    -0.271 OA
ENDBRANCH   8  20
TORSDOF 3
ENDMDL
MODEL 4
REMARK VINA RESULT:      -6.3     17.321     19.073
REMARK  3 active torsions:
REMARK  status: ('A' for Active; 'I' for Inactive)
REMARK    1  A    between atoms: C7_8  and  C10_12 
REMARK    2  A    between atoms: N9_10  and  C1'_11 
REMARK    3  A    between atoms: C4'_19  and  C5'_21 
ROOT
HETATM    1  N1    D T 601      -2.071  -5.447  20.093  1.00 22.46    -0.210 NA
HETATM    2  C2    D T 601      -1.328  -4.360  19.695  1.00 17.33     0.201 A 
HETATM    3  N3    D T 601      -0.112  -4.558  19.089  1.00 21.38    -0.207 NA
HETATM    4  C4    D T 601       0.344  -5.836  18.893  1.00 21.15     0.150 A 
HETATM    5  C5    D T 601      -0.396  -6.911  19.282  1.00 22.48     0.071 A 
HETATM    6  C6    D T 601      -1.620  -6.705  19.896  1.00 22.92     0.156 A 
HETATM    7  N6    D T 601      -2.738  -7.420  20.469  1.00 23.12    -0.080 NA
HETATM    8  C7    D T 601       0.307  -8.057  18.959  1.00 19.57     0.076 A 
HETATM    9  C8    D T 601       1.490  -7.681  18.363  1.00 12.70     0.084 A 
HETATM   10  N9    D T 601       1.501  -6.326  18.300  1.00 22.69    -0.287 N 
ENDROOT
BRANCH  10  11
HETATM   11  C1'   D T 601       2.577  -5.448  17.805  1.00 23.36     0.240 C 
HETATM   12  C2'   D T 601       3.329  -4.856  18.995  1.00 24.93     0.234 C 
HETATM   13  O2'   D T 601       3.950  -3.650  18.581  1.00 35.12    -0.216 OA
HETATM   14  C3'   D T 601       4.363  -5.936  19.231  1.00 25.54     0.216 C 
HETATM   15  O3'   D T 601       5.446  -5.516  20.035  1.00 30.30    -0.218 OA
HETATM   16  C4'   D T 601       4.760  -6.300  17.811  1.00 31.54     0.183 C 
HETATM   17  O4'   D T 601       3.507  -6.223  17.075  1.00 29.87    -0.331 OA
BRANCH  16  18
HETATM   18  C5'   D T 601       5.392  -7.656  17.614  1.00 31.76     0.214 C 
HETATM   19  O5'   D T 601       4.579  -8.483  16.799  1.00 34.06    -0.218 OA
ENDBRANCH  16  18
ENDBRANCH  10  11
BRANCH   8  20
HETATM   20  C10   D T 601       0.032  -9.574  19.136  1.00 29.97     0.268 C 
HETATM   21  N11   D T 601      -0.159 -10.120  20.497  1.00 35.69    -0.057 NA
HETATM   22  O12   D T 601      -0.030 -10.311  18.154  1.00 30.21    -0.271 OA
ENDBRANCH   8  20
TORSDOF 3
ENDMDL
MODEL 5
REMARK VINA RESULT:      -6.2      2.468      4.383
REMARK  3 active torsions:
REMARK  status: ('A' for Active; 'I' for Inactive)
REMARK    1  A    between atoms: C7_8  and  C10_12 
REMARK    2  A    between atoms: N9_10  and  C1'_11 
REMARK    3  A    between atoms: C4'_19  and  C5'_21 
ROOT
HETATM    1  N1    D T 601      -0.082   8.697   5.913  1.00 22.46    -0.210 NA
HETATM    2  C2    D T 601       0.955   9.196   5.161  1.00 17.33     0.201 A 
HETATM    3  N3    D T 601       2.219   8.688   5.331  1.00 21.38    -0.207 NA
HETATM    4  C4    D T 601       2.427   7.692   6.251  1.00 21.15     0.150 A 
HETATM    5  C5    D T 601       1.397   7.195   6.990  1.00 22.48     0.071 A 
HETATM    6  C6    D T 601       0.126   7.715   6.817  1.00 22.92     0.156 A 
HETATM    7  N6    D T 601      -1.233   7.578   7.293  1.00 23.12    -0.080 NA
HETATM    8  C7    D T 601       1.900   6.212   7.821  1.00 19.57     0.076 A 
HETATM    9  C8    D T 601       3.253   6.103   7.588  1.00 12.70     0.084 A 
HETATM   10  N9    D T 601       3.569   6.988   6.611  1.00 22.69    -0.287 N 
ENDROOT
BRANCH  10  11
HETATM   11  C1'   D T 601       4.901   7.292   6.056  1.00 23.36     0.240 C 
HETATM   12  C2'   D T 601       5.626   8.259   6.990  1.00 24.93     0.234 C 
HETATM   13  O2'   D T 601       6.604   8.960   6.241  1.00 35.12    -0.216 OA
HETATM   14  C3'   D T 601       6.281   7.282   7.943  1.00 25.54     0.216 C 
HETATM   15  O3'   D T 601       7.323   7.851   8.708  1.00 30.30    -0.218 OA
HETATM   16  C4'   D T 601       6.744   6.188   6.996  1.00 31.54     0.183 C 
HETATM   17  O4'   D T 601       5.668   6.105   6.019  1.00 29.87    -0.331 OA
BRANCH  16  18
HETATM   18  C5'   D T 601       6.996   4.831   7.604  1.00 31.76     0.214 C 
HETATM   19  O5'   D T 601       8.386   4.580   7.728  1.00 34.06    -0.218 OA
ENDBRANCH  16  18
ENDBRANCH  10  11
BRANCH   8  20
HETATM   20  C10   D T 601       1.270   5.283   8.894  1.00 29.97     0.268 C 
HETATM   21  N11   D T 601       0.049   4.517   8.560  1.00 35.69    -0.057 NA
HETATM   22  O12   D T 601       1.785   5.183  10.005  1.00 30.21    -0.271 OA
ENDBRANCH   8  20
TORSDOF 3
ENDMDL
MODEL 6
REMARK VINA RESULT:      -6.1      2.308      4.145
REMARK  3 active torsions:
REMARK  status: ('A' for Active; 'I' for Inactive)
REMARK    1  A    between atoms: C7_8  and  C10_12 
REMARK    2  A    between atoms: N9_10  and  C1'_11 
REMARK    3  A    between atoms: C4'_19  and  C5'_21 
ROOT
HETATM    1  N1    D T 601       0.016   4.488   9.321  1.00 22.46    -0.210 NA
HETATM    2  C2    D T 601      -0.327   5.434   8.385  1.00 17.33     0.201 A 
HETATM    3  N3    D T 601       0.659   6.162   7.765  1.00 21.38    -0.207 NA
HETATM    4  C4    D T 601       1.971   5.934   8.093  1.00 21.15     0.150 A 
HETATM    5  C5    D T 601       2.309   4.992   9.015  1.00 22.48     0.071 A 
HETATM    6  C6    D T 601       1.310   4.265   9.640  1.00 22.92     0.156 A 
HETATM    7  N6    D T 601       1.107   3.221  10.619  1.00 23.12    -0.080 NA
HETATM    8  C7    D T 601       3.686   4.984   9.137  1.00 19.57     0.076 A 
HETATM    9  C8    D T 601       4.199   5.930   8.278  1.00 12.70     0.084 A 
HETATM   10  N9    D T 601       3.153   6.491   7.622  1.00 22.69    -0.287 N 
ENDROOT
BRANCH  10  11
HETATM   11  C1'   D T 601       3.180   7.596   6.645  1.00 23.36     0.240 C 
HETATM   12  C2'   D T 601       3.807   8.826   7.296  1.00 24.93     0.234 C 
HETATM   13  O2'   D T 601       3.351   9.980   6.609  1.00 35.12    -0.216 OA
HETATM   14  C3'   D T 601       5.272   8.575   7.004  1.00 25.54     0.216 C 
HETATM   15  O3'   D T 601       6.084   9.721   7.158  1.00 30.30    -0.218 OA
HETATM   16  C4'   D T 601       5.218   8.050   5.579  1.00 31.54     0.183 C 
HETATM   17  O4'   D T 601       4.014   7.234   5.561  1.00 29.87    -0.331 OA
BRANCH  16  18
HETATM   18  C5'   D T 601       6.401   7.236   5.115  1.00 31.76     0.214 C 
HETATM   19  O5'   D T 601       6.848   6.360   6.136  1.00 34.06    -0.218 OA
ENDBRANCH  16  18
ENDBRANCH  10  11
BRANCH   8  20
HETATM   20  C10   D T 601       4.686   4.171  10.003  1.00 29.97     0.268 C 
HETATM   21  N11   D T 601       4.507   4.133  11.471  1.00 35.69    -0.057 NA
HETATM   22  O12   D T 601       5.612   3.562   9.471  1.00 30.21    -0.271 OA
ENDBRANCH   8  20
TORSDOF 3
ENDMDL
MODEL 7
REMARK VINA RESULT:      -6.0      1.670      3.371
REMARK  3 active torsions:
REMARK  status: ('A' for Active; 'I' for Inactive)
REMARK    1  A    between atoms: C7_8  and  C10_12 
REMARK    2  A    between atoms: N9_10  and  C1'_11 
REMARK    3  A    between atoms: C4'_19  and  C5'_21 
ROOT
HETATM    1  N1    D T 601      -0.143   8.988   5.286  1.00 22.46    -0.210 NA
HETATM    2  C2    D T 601       1.071   9.627   5.379  1.00 17.33     0.201 A 
HETATM    3  N3    D T 601       2.081   9.057   6.116  1.00 21.38    -0.207 NA
HETATM    4  C4    D T 601       1.860   7.860   6.749  1.00 21.15     0.150 A 
HETATM    5  C5    D T 601       0.659   7.227   6.650  1.00 22.48     0.071 A 
HETATM    6  C6    D T 601      -0.356   7.808   5.909  1.00 22.92     0.156 A 
HETATM    7  N6    D T 601      -1.725   7.597   5.494  1.00 23.12    -0.080 NA
HETATM    8  C7    D T 601       0.729   6.056   7.381  1.00 19.57     0.076 A 
HETATM    9  C8    D T 601       1.987   5.970   7.934  1.00 12.70     0.084 A 
HETATM   10  N9    D T 601       2.686   7.058   7.526  1.00 22.69    -0.287 N 
ENDROOT
BRANCH  10  11
HETATM   11  C1'   D T 601       4.057   7.451   7.900  1.00 23.36     0.240 C 
HETATM   12  C2'   D T 601       4.984   6.248   7.742  1.00 24.93     0.234 C 
HETATM   13  O2'   D T 601       6.111   6.435   8.582  1.00 35.12    -0.216 OA
HETATM   14  C3'   D T 601       5.375   6.391   6.286  1.00 25.54     0.216 C 
HETATM   15  O3'   D T 601       6.516   5.638   5.930  1.00 30.30    -0.218 OA
HETATM   16  C4'   D T 601       5.569   7.893   6.163  1.00 31.54     0.183 C 
HETATM   17  O4'   D T 601       4.515   8.443   7.002  1.00 29.87    -0.331 OA
BRANCH  16  18
HETATM   18  C5'   D T 601       5.480   8.473   4.774  1.00 31.76     0.214 C 
HETATM   19  O5'   D T 601       4.475   7.823   4.014  1.00 34.06    -0.218 OA
ENDBRANCH  16  18
ENDBRANCH  10  11
BRANCH   8  20
HETATM   20  C10   D T 601      -0.276   4.910   7.679  1.00 29.97     0.268 C 
HETATM   21  N11   D T 601      -0.051   4.038   8.851  1.00 35.69    -0.057 NA
HETATM   22  O12   D T 601      -1.249   4.736   6.949  1.00 30.21    -0.271 OA
ENDBRANCH   8  20
TORSDOF 3
ENDMDL
MODEL 8
REMARK VINA RESULT:      -6.0      2.034      2.827
REMARK  3 active torsions:
REMARK  status: ('A' for Active; 'I' for Inactive)
REMARK    1  A    between atoms: C7_8  and  C10_12 
REMARK    2  A    between atoms: N9_10  and  C1'_11 
REMARK    3  A    between atoms: C4'_19  and  C5'_21 
ROOT
HETATM    1  N1    D T 601       5.639   4.223   9.492  1.00 22.46    -0.210 NA
HETATM    2  C2    D T 601       6.635   5.044   9.020  1.00 17.33     0.201 A 
HETATM    3  N3    D T 601       6.308   6.122   8.234  1.00 21.38    -0.207 NA
HETATM    4  C4    D T 601       4.992   6.359   7.931  1.00 21.15     0.150 A 
HETATM    5  C5    D T 601       4.006   5.548   8.405  1.00 22.48     0.071 A 
HETATM    6  C6    D T 601       4.343   4.461   9.193  1.00 22.92     0.156 A 
HETATM    7  N6    D T 601       3.756   3.353   9.913  1.00 23.12    -0.080 NA
HETATM    8  C7    D T 601       2.795   6.028   7.943  1.00 19.57     0.076 A 
HETATM    9  C8    D T 601       3.040   7.147   7.179  1.00 12.70     0.084 A 
HETATM   10  N9    D T 601       4.378   7.364   7.193  1.00 22.69    -0.287 N 
ENDROOT
BRANCH  10  11
HETATM   11  C1'   D T 601       5.138   8.403   6.473  1.00 23.36     0.240 C 
HETATM   12  C2'   D T 601       5.558   7.862   5.108  1.00 24.93     0.234 C 
HETATM   13  O2'   D T 601       6.696   8.585   4.668  1.00 35.12    -0.216 OA
HETATM   14  C3'   D T 601       4.341   8.226   4.283  1.00 25.54     0.216 C 
HETATM   15  O3'   D T 601       4.571   8.187   2.890  1.00 30.30    -0.218 OA
HETATM   16  C4'   D T 601       4.013   9.613   4.811  1.00 31.54     0.183 C 
HETATM   17  O4'   D T 601       4.294   9.512   6.235  1.00 29.87    -0.331 OA
BRANCH  16  18
HETATM   18  C5'   D T 601       2.601  10.099   4.596  1.00 31.76     0.214 C 
HETATM   19  O5'   D T 601       2.516  10.923   3.445  1.00 34.06    -0.218 OA
ENDBRANCH  16  18
ENDBRANCH  10  11
BRANCH   8  20
HETATM   20  C10   D T 601       1.321   5.568   8.108  1.00 29.97     0.268 C 
HETATM   21  N11   D T 601       0.835   5.167   9.446  1.00 35.69    -0.057 NA
HETATM   22  O12   D T 601       0.568   5.545   7.137  1.00 30.21    -0.271 OA
ENDBRANCH   8  20
TORSDOF 3
ENDMDL
MODEL 9
REMARK VINA RESULT:      -5.9      2.750      4.673
REMARK  3 active torsions:
REMARK  status: ('A' for Active; 'I' for Inactive)
REMARK    1  A    between atoms: C7_8  and  C10_12 
REMARK    2  A    between atoms: N9_10  and  C1'_11 
REMARK    3  A    between atoms: C4'_19  and  C5'_21 
ROOT
HETATM    1  N1    D T 601       0.758   6.651   7.649  1.00 22.46    -0.210 NA
HETATM    2  C2    D T 601       1.220   7.522   6.690  1.00 17.33     0.201 A 
HETATM    3  N3    D T 601       2.563   7.567   6.408  1.00 21.38    -0.207 NA
HETATM    4  C4    D T 601       3.423   6.744   7.090  1.00 21.15     0.150 A 
HETATM    5  C5    D T 601       2.963   5.878   8.034  1.00 22.48     0.071 A 
HETATM    6  C6    D T 601       1.608   5.840   8.317  1.00 22.92     0.156 A 
HETATM    7  N6    D T 601       0.640   5.170   9.156  1.00 23.12    -0.080 NA
HETATM    8  C7    D T 601       4.044   5.186   8.546  1.00 19.57     0.076 A 
HETATM    9  C8    D T 601       5.180   5.630   7.907  1.00 12.70     0.084 A 
HETATM   10  N9    D T 601       4.797   6.563   7.000  1.00 22.69    -0.287 N 
ENDROOT
BRANCH  10  11
HETATM   11  C1'   D T 601       5.653   7.375   6.115  1.00 23.36     0.240 C 
HETATM   12  C2'   D T 601       5.733   8.798   6.662  1.00 24.93     0.234 C 
HETATM   13  O2'   D T 601       6.056   9.674   5.595  1.00 35.12    -0.216 OA
HETATM   14  C3'   D T 601       6.903   8.661   7.614  1.00 25.54     0.216 C 
HETATM   15  O3'   D T 601       7.462   9.898   8.005  1.00 30.30    -0.218 OA
HETATM   16  C4'   D T 601       7.853   7.786   6.813  1.00 31.54     0.183 C 
HETATM   17  O4'   D T 601       6.967   6.853   6.135  1.00 29.87    -0.331 OA
BRANCH  16  18
HETATM   18  C5'   D T 601       8.897   7.031   7.597  1.00 31.76     0.214 C 
HETATM   19  O5'   D T 601       8.616   5.642   7.614  1.00 34.06    -0.218 OA
ENDBRANCH  16  18
ENDBRANCH  10  11
BRANCH   8  20
HETATM   20  C10   D T 601       4.203   4.086   9.631  1.00 29.97     0.268 C 
HETATM   21  N11   D T 601       3.717   4.349  11.002  1.00 35.69    -0.057 NA
HETATM   22  O12   D T 601       4.723   3.009   9.348  1.00 30.21    -0.271 OA
ENDBRANCH   8  20
TORSDOF 3
ENDMDL
