MODEL 1
REMARK VINA RESULT:    -8.592      0.000      0.000
REMARK INTER + INTRA:         -11.855
REMARK INTER:                 -11.104
REMARK INTRA:                  -0.751
REMARK UNBOUND:                -0.751
REMARK  10 active torsions:
REMARK  status: ('A' for Active; 'I' for Inactive)
REMARK    1  A    between atoms: C1_1  and  C21_25 
REMARK    2  A    between atoms: N1_14  and  C13_15 
REMARK    3  A    between atoms: C13_15  and  C14_16 
REMARK    4  A    between atoms: C14_16  and  C15_17 
REMARK    5  A    between atoms: C15_17  and  N2_18 
REMARK    6  A    between atoms: C1_29  and  C21_53 
REMARK    7  A    between atoms: N1_42  and  C13_43 
REMARK    8  A    between atoms: C13_43  and  C14_44 
REMARK    9  A    between atoms: C14_44  and  C15_45 
REMARK   10  A    between atoms: C15_45  and  N2_46 
ROOT
HETATM    1  C1    D T 153       0.208   2.963  -7.146  0.85 32.23     0.073 C 
HETATM    2  C2    D T 153       1.586   3.083  -6.964  0.85 32.23     0.004 C 
HETATM    3  C3    D T 153       2.203   4.251  -7.340  0.85 32.23     0.008 C 
HETATM    4  C4    D T 153       1.454   5.402  -7.505  0.85 32.23     0.045 C 
HETATM    5  C5    D T 153       0.053   5.346  -7.530  0.85 32.23     0.066 C 
HETATM    6  C6    D T 153      -0.579   4.093  -7.386  0.85 32.23     0.022 C 
HETATM    7  S     D T 153       2.318   6.932  -7.656  0.85 32.23    -0.084 SA
HETATM    8  C7    D T 153       1.117   8.109  -7.208  0.85 32.23     0.045 C 
HETATM    9  C8    D T 153       1.563   9.327  -6.672  0.85 32.23     0.008 C 
HETATM   10  C9    D T 153       0.658  10.252  -6.189  0.85 32.23     0.001 C 
HETATM   11  C10   D T 153      -0.694   9.941  -6.193  0.85 32.23     0.002 C 
HETATM   12  C11   D T 153      -1.127   8.779  -6.813  0.85 32.23     0.018 C 
HETATM   13  C12   D T 153      -0.248   7.829  -7.387  0.85 32.23     0.066 C 
HETATM   14  N1    D T 153      -0.686   6.513  -7.930  0.85 82.40    -0.327 N 
ENDROOT
BRANCH  14  15
HETATM   15  C13   D T 153      -2.103   6.290  -8.224  0.85 82.40     0.108 C 
BRANCH  15  16
HETATM   16  C14   D T 153      -2.418   6.468  -9.715  0.85 82.40     0.060 C 
BRANCH  16  17
HETATM   17  C15   D T 153      -3.048   7.837 -10.035  0.85 82.40     0.252 C 
BRANCH  17  18
HETATM   18  N2    D T 153      -3.773   7.922 -11.280  0.85 82.40     0.141 N 
HETATM   19  C16   D T 153      -5.032   7.269 -11.064  0.85 82.40     0.285 C 
HETATM   20  C17   D T 153      -5.876   7.414 -12.237  0.85 82.40     0.285 C 
HETATM   21  N3    D T 153      -5.206   8.202 -13.234  0.85 82.40     0.143 N 
HETATM   22  C18   D T 153      -4.882   9.481 -12.675  0.85 82.40     0.285 C 
HETATM   23  C20   D T 153      -6.153   8.440 -14.270  0.85 82.40     0.285 C 
HETATM   24  C19   D T 153      -4.001   9.318 -11.533  0.85 82.40     0.285 C 
ENDBRANCH  17  18
ENDBRANCH  16  17
ENDBRANCH  15  16
ENDBRANCH  14  15
BRANCH   1  25
HETATM   25  C21   D T 153      -0.405   1.643  -7.096  0.85 32.23     0.419 C 
HETATM   26  F1    D T 153      -1.700   1.650  -6.989  0.85 32.23    -0.166 F 
HETATM   27  F2    D T 153      -0.029   0.925  -6.098  0.85 32.23    -0.166 F 
HETATM   28  F3    D T 153      -0.177   0.875  -8.124  0.85 32.23    -0.166 F 
ENDBRANCH   1  25
TORSDOF 10
ENDMDL
MODEL 2
REMARK VINA RESULT:    -7.885      1.490      2.329
REMARK INTER + INTRA:         -10.941
REMARK INTER:                 -10.066
REMARK INTRA:                  -0.875
REMARK UNBOUND:                -0.751
REMARK  10 active torsions:
REMARK  status: ('A' for Active; 'I' for Inactive)
REMARK    1  A    between atoms: C1_1  and  C21_25 
REMARK    2  A    between atoms: N1_14  and  C13_15 
REMARK    3  A    between atoms: C13_15  and  C14_16 
REMARK    4  A    between atoms: C14_16  and  C15_17 
REMARK    5  A    between atoms: C15_17  and  N2_18 
REMARK    6  A    between atoms: C1_29  and  C21_53 
REMARK    7  A    between atoms: N1_42  and  C13_43 
REMARK    8  A    between atoms: C13_43  and  C14_44 
REMARK    9  A    between atoms: C14_44  and  C15_45 
REMARK   10  A    between atoms: C15_45  and  N2_46 
ROOT
HETATM    1  C1    D T 153       0.079   2.869  -7.050  0.85 32.23     0.073 C 
HETATM    2  C2    D T 153       1.467   2.829  -6.922  0.85 32.23     0.004 C 
HETATM    3  C3    D T 153       2.201   3.909  -7.348  0.85 32.23     0.008 C 
HETATM    4  C4    D T 153       1.585   5.137  -7.510  0.85 32.23     0.045 C 
HETATM    5  C5    D T 153       0.187   5.246  -7.482  0.85 32.23     0.066 C 
HETATM    6  C6    D T 153      -0.580   4.078  -7.285  0.85 32.23     0.022 C 
HETATM    7  S     D T 153       2.615   6.552  -7.730  0.85 32.23    -0.084 SA
HETATM    8  C7    D T 153       1.578   7.870  -7.263  0.85 32.23     0.045 C 
HETATM    9  C8    D T 153       2.185   9.037  -6.773  0.85 32.23     0.008 C 
HETATM   10  C9    D T 153       1.414  10.070  -6.277  0.85 32.23     0.001 C 
HETATM   11  C10   D T 153       0.036   9.920  -6.223  0.85 32.23     0.002 C 
HETATM   12  C11   D T 153      -0.555   8.806  -6.800  0.85 32.23     0.018 C 
HETATM   13  C12   D T 153       0.184   7.749  -7.385  0.85 32.23     0.066 C 
HETATM   14  N1    D T 153      -0.426   6.484  -7.880  0.85 82.40    -0.327 N 
ENDROOT
BRANCH  14  15
HETATM   15  C13   D T 153      -1.870   6.423  -8.115  0.85 82.40     0.108 C 
BRANCH  15  16
HETATM   16  C14   D T 153      -2.223   6.634  -9.594  0.85 82.40     0.060 C 
BRANCH  16  17
HETATM   17  C15   D T 153      -3.295   7.720  -9.805  0.85 82.40     0.252 C 
BRANCH  17  18
HETATM   18  N2    D T 153      -2.802   9.050 -10.074  0.85 82.40     0.141 N 
HETATM   19  C16   D T 153      -3.541   9.538 -11.203  0.85 82.40     0.285 C 
HETATM   20  C17   D T 153      -3.189  10.922 -11.467  0.85 82.40     0.285 C 
HETATM   21  N3    D T 153      -2.241  11.386 -10.493  0.85 82.40     0.143 N 
HETATM   22  C18   D T 153      -2.811  11.243  -9.185  0.85 82.40     0.285 C 
HETATM   23  C20   D T 153      -2.079  12.783 -10.715  0.85 82.40     0.285 C 
HETATM   24  C19   D T 153      -3.112   9.849  -8.922  0.85 82.40     0.285 C 
ENDBRANCH  17  18
ENDBRANCH  16  17
ENDBRANCH  15  16
ENDBRANCH  14  15
BRANCH   1  25
HETATM   25  C21   D T 153      -0.682   1.631  -6.946  0.85 32.23     0.419 C 
HETATM   26  F1    D T 153      -0.250   0.664  -7.699  0.85 32.23    -0.166 F 
HETATM   27  F2    D T 153      -1.917   1.742  -7.285  0.85 32.23    -0.166 F 
HETATM   28  F3    D T 153      -0.740   1.102  -5.756  0.85 32.23    -0.166 F 
ENDBRANCH   1  25
TORSDOF 10
ENDMDL
MODEL 3
REMARK VINA RESULT:    -7.855      1.878      2.439
REMARK INTER + INTRA:         -10.903
REMARK INTER:                 -10.168
REMARK INTRA:                  -0.735
REMARK UNBOUND:                -0.751
REMARK  10 active torsions:
REMARK  status: ('A' for Active; 'I' for Inactive)
REMARK    1  A    between atoms: C1_1  and  C21_25 
REMARK    2  A    between atoms: N1_14  and  C13_15 
REMARK    3  A    between atoms: C13_15  and  C14_16 
REMARK    4  A    between atoms: C14_16  and  C15_17 
REMARK    5  A    between atoms: C15_17  and  N2_18 
REMARK    6  A    between atoms: C1_29  and  C21_53 
REMARK    7  A    between atoms: N1_42  and  C13_43 
REMARK    8  A    between atoms: C13_43  and  C14_44 
REMARK    9  A    between atoms: C14_44  and  C15_45 
REMARK   10  A    between atoms: C15_45  and  N2_46 
ROOT
HETATM    1  C1    D T 153       2.848   4.825  -6.751  0.85 32.23     0.073 C 
HETATM    2  C2    D T 153       3.988   5.460  -6.258  0.85 32.23     0.004 C 
HETATM    3  C3    D T 153       4.124   6.814  -6.449  0.85 32.23     0.008 C 
HETATM    4  C4    D T 153       3.012   7.582  -6.742  0.85 32.23     0.045 C 
HETATM    5  C5    D T 153       1.794   6.977  -7.084  0.85 32.23     0.066 C 
HETATM    6  C6    D T 153       1.725   5.568  -7.126  0.85 32.23     0.022 C 
HETATM    7  S     D T 153       3.174   9.336  -6.647  0.85 32.23    -0.084 SA
HETATM    8  C7    D T 153       1.531   9.873  -6.444  0.85 32.23     0.045 C 
HETATM    9  C8    D T 153       1.319  11.093  -5.784  0.85 32.23     0.008 C 
HETATM   10  C9    D T 153       0.037  11.515  -5.488  0.85 32.23     0.001 C 
HETATM   11  C10   D T 153      -1.035  10.694  -5.807  0.85 32.23     0.002 C 
HETATM   12  C11   D T 153      -0.818   9.540  -6.545  0.85 32.23     0.018 C 
HETATM   13  C12   D T 153       0.468   9.097  -6.935  0.85 32.23     0.066 C 
HETATM   14  N1    D T 153       0.729   7.792  -7.604  0.85 82.40    -0.327 N 
ENDROOT
BRANCH  14  15
HETATM   15  C13   D T 153      -0.381   7.060  -8.216  0.85 82.40     0.108 C 
BRANCH  15  16
HETATM   16  C14   D T 153      -0.439   7.265  -9.736  0.85 82.40     0.060 C 
BRANCH  16  17
HETATM   17  C15   D T 153      -1.240   8.516 -10.142  0.85 82.40     0.252 C 
BRANCH  17  18
HETATM   18  N2    D T 153      -2.350   8.292 -11.038  0.85 82.40     0.141 N 
HETATM   19  C16   D T 153      -3.138   7.245 -10.454  0.85 82.40     0.285 C 
HETATM   20  C17   D T 153      -4.346   7.037 -11.233  0.85 82.40     0.285 C 
HETATM   21  N3    D T 153      -4.397   7.971 -12.323  0.85 82.40     0.143 N 
HETATM   22  C18   D T 153      -4.351   9.303 -11.797  0.85 82.40     0.285 C 
HETATM   23  C20   D T 153      -5.676   7.820 -12.931  0.85 82.40     0.285 C 
HETATM   24  C19   D T 153      -3.117   9.506 -11.061  0.85 82.40     0.285 C 
ENDBRANCH  17  18
ENDBRANCH  16  17
ENDBRANCH  15  16
ENDBRANCH  14  15
BRANCH   1  25
HETATM   25  C21   D T 153       2.841   3.375  -6.881  0.85 32.23     0.419 C 
HETATM   26  F1    D T 153       1.664   2.851  -7.047  0.85 32.23    -0.166 F 
HETATM   27  F2    D T 153       3.301   2.751  -5.855  0.85 32.23    -0.166 F 
HETATM   28  F3    D T 153       3.543   2.893  -7.868  0.85 32.23    -0.166 F 
ENDBRANCH   1  25
TORSDOF 10
ENDMDL
MODEL 4
REMARK VINA RESULT:    -7.773      4.539      8.148
REMARK INTER + INTRA:         -10.796
REMARK INTER:                  -9.743
REMARK INTRA:                  -1.052
REMARK UNBOUND:                -0.751
REMARK  10 active torsions:
REMARK  status: ('A' for Active; 'I' for Inactive)
REMARK    1  A    between atoms: C1_1  and  C21_25 
REMARK    2  A    between atoms: N1_14  and  C13_15 
REMARK    3  A    between atoms: C13_15  and  C14_16 
REMARK    4  A    between atoms: C14_16  and  C15_17 
REMARK    5  A    between atoms: C15_17  and  N2_18 
REMARK    6  A    between atoms: C1_29  and  C21_53 
REMARK    7  A    between atoms: N1_42  and  C13_43 
REMARK    8  A    between atoms: C13_43  and  C14_44 
REMARK    9  A    between atoms: C14_44  and  C15_45 
REMARK   10  A    between atoms: C15_45  and  N2_46 
ROOT
HETATM    1  C1    D T 153      -0.848   9.252  -6.767  0.85 32.23     0.073 C 
HETATM    2  C2    D T 153      -2.110   9.098  -7.342  0.85 32.23     0.004 C 
HETATM    3  C3    D T 153      -2.310   8.069  -8.230  0.85 32.23     0.008 C 
HETATM    4  C4    D T 153      -1.440   6.993  -8.243  0.85 32.23     0.045 C 
HETATM    5  C5    D T 153      -0.228   7.046  -7.539  0.85 32.23     0.066 C 
HETATM    6  C6    D T 153       0.089   8.217  -6.818  0.85 32.23     0.022 C 
HETATM    7  S     D T 153      -1.918   5.559  -9.150  0.85 32.23    -0.084 SA
HETATM    8  C7    D T 153      -0.957   4.299  -8.428  0.85 32.23     0.045 C 
HETATM    9  C8    D T 153      -1.453   2.987  -8.482  0.85 32.23     0.008 C 
HETATM   10  C9    D T 153      -0.796   1.964  -7.826  0.85 32.23     0.001 C 
HETATM   11  C10   D T 153       0.331   2.258  -7.073  0.85 32.23     0.002 C 
HETATM   12  C11   D T 153       0.865   3.538  -7.110  0.85 32.23     0.018 C 
HETATM   13  C12   D T 153       0.271   4.607  -7.822  0.85 32.23     0.066 C 
HETATM   14  N1    D T 153       0.752   6.016  -7.756  0.85 82.40    -0.327 N 
ENDROOT
BRANCH  14  15
HETATM   15  C13   D T 153       2.089   6.298  -7.231  0.85 82.40     0.108 C 
BRANCH  15  16
HETATM   16  C14   D T 153       3.125   6.468  -8.350  0.85 82.40     0.060 C 
BRANCH  16  17
HETATM   17  C15   D T 153       4.381   7.235  -7.894  0.85 82.40     0.252 C 
BRANCH  17  18
HETATM   18  N2    D T 153       4.153   8.331  -6.981  0.85 82.40     0.141 N 
HETATM   19  C16   D T 153       5.345   8.458  -6.193  0.85 82.40     0.285 C 
HETATM   20  C17   D T 153       5.247   9.619  -5.326  0.85 82.40     0.285 C 
HETATM   21  N3    D T 153       4.005  10.304  -5.556  0.85 82.40     0.143 N 
HETATM   22  C18   D T 153       3.934  10.687  -6.935  0.85 82.40     0.285 C 
HETATM   23  C20   D T 153       4.059  11.511  -4.802  0.85 82.40     0.285 C 
HETATM   24  C19   D T 153       3.987   9.511  -7.783  0.85 82.40     0.285 C 
ENDBRANCH  17  18
ENDBRANCH  16  17
ENDBRANCH  15  16
ENDBRANCH  14  15
BRANCH   1  25
HETATM   25  C21   D T 153      -0.510  10.512  -6.119  0.85 32.23     0.419 C 
HETATM   26  F1    D T 153      -1.307  10.856  -5.153  0.85 32.23    -0.166 F 
HETATM   27  F2    D T 153      -0.536  11.531  -6.902  0.85 32.23    -0.166 F 
HETATM   28  F3    D T 153       0.677  10.571  -5.585  0.85 32.23    -0.166 F 
ENDBRANCH   1  25
TORSDOF 10
ENDMDL
MODEL 5
REMARK VINA RESULT:    -7.623      1.589      2.285
REMARK INTER + INTRA:         -10.602
REMARK INTER:                  -9.870
REMARK INTRA:                  -0.732
REMARK UNBOUND:                -0.751
REMARK  10 active torsions:
REMARK  status: ('A' for Active; 'I' for Inactive)
REMARK    1  A    between atoms: C1_1  and  C21_25 
REMARK    2  A    between atoms: N1_14  and  C13_15 
REMARK    3  A    between atoms: C13_15  and  C14_16 
REMARK    4  A    between atoms: C14_16  and  C15_17 
REMARK    5  A    between atoms: C15_17  and  N2_18 
REMARK    6  A    between atoms: C1_29  and  C21_53 
REMARK    7  A    between atoms: N1_42  and  C13_43 
REMARK    8  A    between atoms: C13_43  and  C14_44 
REMARK    9  A    between atoms: C14_44  and  C15_45 
REMARK   10  A    between atoms: C15_45  and  N2_46 
ROOT
HETATM    1  C1    D T 153       0.492   5.319  -6.832  0.85 32.23     0.073 C 
HETATM    2  C2    D T 153       1.855   5.520  -6.610  0.85 32.23     0.004 C 
HETATM    3  C3    D T 153       2.383   6.768  -6.835  0.85 32.23     0.008 C 
HETATM    4  C4    D T 153       1.548   7.871  -6.878  0.85 32.23     0.045 C 
HETATM    5  C5    D T 153       0.156   7.711  -6.937  0.85 32.23     0.066 C 
HETATM    6  C6    D T 153      -0.378   6.405  -6.953  0.85 32.23     0.022 C 
HETATM    7  S     D T 153       2.292   9.469  -6.833  0.85 32.23    -0.084 SA
HETATM    8  C7    D T 153       0.998  10.490  -6.273  0.85 32.23     0.045 C 
HETATM    9  C8    D T 153       1.343  11.666  -5.590  0.85 32.23     0.008 C 
HETATM   10  C9    D T 153       0.364  12.456  -5.020  0.85 32.23     0.001 C 
HETATM   11  C10   D T 153      -0.960  12.046  -5.086  0.85 32.23     0.002 C 
HETATM   12  C11   D T 153      -1.295  10.935  -5.847  0.85 32.23     0.018 C 
HETATM   13  C12   D T 153      -0.338  10.130  -6.511  0.85 32.23     0.066 C 
HETATM   14  N1    D T 153      -0.667   8.858  -7.212  0.85 82.40    -0.327 N 
ENDROOT
BRANCH  14  15
HETATM   15  C13   D T 153      -2.060   8.564  -7.558  0.85 82.40     0.108 C 
BRANCH  15  16
HETATM   16  C14   D T 153      -2.378   8.913  -9.018  0.85 82.40     0.060 C 
BRANCH  16  17
HETATM   17  C15   D T 153      -3.209   7.826  -9.726  0.85 82.40     0.252 C 
BRANCH  17  18
HETATM   18  N2    D T 153      -3.755   8.188 -11.013  0.85 82.40     0.141 N 
HETATM   19  C16   D T 153      -2.889   7.611 -12.000  0.85 82.40     0.285 C 
HETATM   20  C17   D T 153      -3.435   7.827 -13.328  0.85 82.40     0.285 C 
HETATM   21  N3    D T 153      -4.693   8.516 -13.240  0.85 82.40     0.143 N 
HETATM   22  C18   D T 153      -5.592   7.741 -12.437  0.85 82.40     0.285 C 
HETATM   23  C20   D T 153      -5.239   8.538 -14.555  0.85 82.40     0.285 C 
HETATM   24  C19   D T 153      -5.051   7.575 -11.101  0.85 82.40     0.285 C 
ENDBRANCH  17  18
ENDBRANCH  16  17
ENDBRANCH  15  16
ENDBRANCH  14  15
BRANCH   1  25
HETATM   25  C21   D T 153      -0.017   3.959  -6.948  0.85 32.23     0.419 C 
HETATM   26  F1    D T 153      -0.859   3.614  -6.021  0.85 32.23    -0.166 F 
HETATM   27  F2    D T 153       0.889   3.049  -6.879  0.85 32.23    -0.166 F 
HETATM   28  F3    D T 153      -0.639   3.683  -8.060  0.85 32.23    -0.166 F 
ENDBRANCH   1  25
TORSDOF 10
ENDMDL
MODEL 6
REMARK VINA RESULT:    -7.613      3.849      5.748
REMARK INTER + INTRA:         -10.590
REMARK INTER:                  -9.716
REMARK INTRA:                  -0.874
REMARK UNBOUND:                -0.751
REMARK  10 active torsions:
REMARK  status: ('A' for Active; 'I' for Inactive)
REMARK    1  A    between atoms: C1_1  and  C21_25 
REMARK    2  A    between atoms: N1_14  and  C13_15 
REMARK    3  A    between atoms: C13_15  and  C14_16 
REMARK    4  A    between atoms: C14_16  and  C15_17 
REMARK    5  A    between atoms: C15_17  and  N2_18 
REMARK    6  A    between atoms: C1_29  and  C21_53 
REMARK    7  A    between atoms: N1_42  and  C13_43 
REMARK    8  A    between atoms: C13_43  and  C14_44 
REMARK    9  A    between atoms: C14_44  and  C15_45 
REMARK   10  A    between atoms: C15_45  and  N2_46 
ROOT
HETATM    1  C1    D T 153       4.820   6.675  -8.833  0.85 32.23     0.073 C 
HETATM    2  C2    D T 153       5.558   5.532  -8.523  0.85 32.23     0.004 C 
HETATM    3  C3    D T 153       5.002   4.592  -7.690  0.85 32.23     0.008 C 
HETATM    4  C4    D T 153       3.632   4.569  -7.497  0.85 32.23     0.045 C 
HETATM    5  C5    D T 153       2.829   5.629  -7.942  0.85 32.23     0.066 C 
HETATM    6  C6    D T 153       3.444   6.721  -8.590  0.85 32.23     0.022 C 
HETATM    7  S     D T 153       2.937   3.158  -6.699  0.85 32.23    -0.084 SA
HETATM    8  C7    D T 153       1.272   3.198  -7.207  0.85 32.23     0.045 C 
HETATM    9  C8    D T 153       0.572   1.983  -7.249  0.85 32.23     0.008 C 
HETATM   10  C9    D T 153      -0.712   1.933  -7.755  0.85 32.23     0.001 C 
HETATM   11  C10   D T 153      -1.283   3.089  -8.267  0.85 32.23     0.002 C 
HETATM   12  C11   D T 153      -0.619   4.299  -8.129  0.85 32.23     0.018 C 
HETATM   13  C12   D T 153       0.670   4.418  -7.555  0.85 32.23     0.066 C 
HETATM   14  N1    D T 153       1.453   5.685  -7.528  0.85 82.40    -0.327 N 
ENDROOT
BRANCH  14  15
HETATM   15  C13   D T 153       0.774   6.959  -7.775  0.85 82.40     0.108 C 
BRANCH  15  16
HETATM   16  C14   D T 153       0.417   7.685  -6.471  0.85 82.40     0.060 C 
BRANCH  16  17
HETATM   17  C15   D T 153      -0.990   8.312  -6.499  0.85 82.40     0.252 C 
BRANCH  17  18
HETATM   18  N2    D T 153      -1.507   8.641  -7.806  0.85 82.40     0.141 N 
HETATM   19  C16   D T 153      -2.828   8.085  -7.873  0.85 82.40     0.285 C 
HETATM   20  C17   D T 153      -3.470   8.474  -9.116  0.85 82.40     0.285 C 
HETATM   21  N3    D T 153      -2.600   9.329  -9.875  0.85 82.40     0.143 N 
HETATM   22  C18   D T 153      -2.273  10.479  -9.086  0.85 82.40     0.285 C 
HETATM   23  C20   D T 153      -3.357   9.800 -10.985  0.85 82.40     0.285 C 
HETATM   24  C19   D T 153      -1.592  10.073  -7.870  0.85 82.40     0.285 C 
ENDBRANCH  17  18
ENDBRANCH  16  17
ENDBRANCH  15  16
ENDBRANCH  14  15
BRANCH   1  25
HETATM   25  C21   D T 153       5.499   7.828  -9.405  0.85 32.23     0.419 C 
HETATM   26  F1    D T 153       6.473   7.538 -10.214  0.85 32.23    -0.166 F 
HETATM   27  F2    D T 153       6.054   8.597  -8.537  0.85 32.23    -0.166 F 
HETATM   28  F3    D T 153       4.749   8.642 -10.094  0.85 32.23    -0.166 F 
ENDBRANCH   1  25
TORSDOF 10
ENDMDL
MODEL 7
REMARK VINA RESULT:    -7.506      5.184      6.913
REMARK INTER + INTRA:         -10.451
REMARK INTER:                  -9.637
REMARK INTRA:                  -0.813
REMARK UNBOUND:                -0.751
REMARK  10 active torsions:
REMARK  status: ('A' for Active; 'I' for Inactive)
REMARK    1  A    between atoms: C1_1  and  C21_25 
REMARK    2  A    between atoms: N1_14  and  C13_15 
REMARK    3  A    between atoms: C13_15  and  C14_16 
REMARK    4  A    between atoms: C14_16  and  C15_17 
REMARK    5  A    between atoms: C15_17  and  N2_18 
REMARK    6  A    between atoms: C1_29  and  C21_53 
REMARK    7  A    between atoms: N1_42  and  C13_43 
REMARK    8  A    between atoms: C13_43  and  C14_44 
REMARK    9  A    between atoms: C14_44  and  C15_45 
REMARK   10  A    between atoms: C15_45  and  N2_46 
ROOT
HETATM    1  C1    D T 153       5.010   6.476  -8.883  0.85 32.23     0.073 C 
HETATM    2  C2    D T 153       5.666   5.308  -8.492  0.85 32.23     0.004 C 
HETATM    3  C3    D T 153       5.023   4.444  -7.639  0.85 32.23     0.008 C 
HETATM    4  C4    D T 153       3.648   4.510  -7.501  0.85 32.23     0.045 C 
HETATM    5  C5    D T 153       2.928   5.593  -8.025  0.85 32.23     0.066 C 
HETATM    6  C6    D T 153       3.632   6.615  -8.697  0.85 32.23     0.022 C 
HETATM    7  S     D T 153       2.840   3.183  -6.668  0.85 32.23    -0.084 SA
HETATM    8  C7    D T 153       1.200   3.297  -7.243  0.85 32.23     0.045 C 
HETATM    9  C8    D T 153       0.430   2.124  -7.257  0.85 32.23     0.008 C 
HETATM   10  C9    D T 153      -0.836   2.127  -7.811  0.85 32.23     0.001 C 
HETATM   11  C10   D T 153      -1.316   3.289  -8.397  0.85 32.23     0.002 C 
HETATM   12  C11   D T 153      -0.585   4.463  -8.288  0.85 32.23     0.018 C 
HETATM   13  C12   D T 153       0.687   4.533  -7.670  0.85 32.23     0.066 C 
HETATM   14  N1    D T 153       1.544   5.751  -7.670  0.85 82.40    -0.327 N 
ENDROOT
BRANCH  14  15
HETATM   15  C13   D T 153       0.953   7.049  -8.001  0.85 82.40     0.108 C 
BRANCH  15  16
HETATM   16  C14   D T 153       0.640   7.878  -6.747  0.85 82.40     0.060 C 
BRANCH  16  17
HETATM   17  C15   D T 153       1.477   9.168  -6.657  0.85 82.40     0.252 C 
BRANCH  17  18
HETATM   18  N2    D T 153       0.731  10.403  -6.637  0.85 82.40     0.141 N 
HETATM   19  C16   D T 153      -0.622  10.057  -6.308  0.85 82.40     0.285 C 
HETATM   20  C17   D T 153      -1.419  11.260  -6.148  0.85 82.40     0.285 C 
HETATM   21  N3    D T 153      -0.598  12.425  -6.328  0.85 82.40     0.143 N 
HETATM   22  C18   D T 153       0.473  12.390  -5.376  0.85 82.40     0.285 C 
HETATM   23  C20   D T 153      -1.404  13.549  -5.991  0.85 82.40     0.285 C 
HETATM   24  C19   D T 153       1.285  11.205  -5.582  0.85 82.40     0.285 C 
ENDBRANCH  17  18
ENDBRANCH  16  17
ENDBRANCH  15  16
ENDBRANCH  14  15
BRANCH   1  25
HETATM   25  C21   D T 153       5.780   7.559  -9.479  0.85 32.23     0.419 C 
HETATM   26  F1    D T 153       6.035   8.549  -8.677  0.85 32.23    -0.166 F 
HETATM   27  F2    D T 153       5.203   8.128 -10.478  0.85 32.23    -0.166 F 
HETATM   28  F3    D T 153       6.948   7.227  -9.954  0.85 32.23    -0.166 F 
ENDBRANCH   1  25
TORSDOF 10
ENDMDL
MODEL 8
REMARK VINA RESULT:    -7.314      5.821      9.079
REMARK INTER + INTRA:         -10.203
REMARK INTER:                  -9.424
REMARK INTRA:                  -0.779
REMARK UNBOUND:                -0.751
REMARK  10 active torsions:
REMARK  status: ('A' for Active; 'I' for Inactive)
REMARK    1  A    between atoms: C1_1  and  C21_25 
REMARK    2  A    between atoms: N1_14  and  C13_15 
REMARK    3  A    between atoms: C13_15  and  C14_16 
REMARK    4  A    between atoms: C14_16  and  C15_17 
REMARK    5  A    between atoms: C15_17  and  N2_18 
REMARK    6  A    between atoms: C1_29  and  C21_53 
REMARK    7  A    between atoms: N1_42  and  C13_43 
REMARK    8  A    between atoms: C13_43  and  C14_44 
REMARK    9  A    between atoms: C14_44  and  C15_45 
REMARK   10  A    between atoms: C15_45  and  N2_46 
ROOT
HETATM    1  C1    D T 153      -0.706  13.202  -4.783  0.85 32.23     0.073 C 
HETATM    2  C2    D T 153      -2.006  13.380  -5.258  0.85 32.23     0.004 C 
HETATM    3  C3    D T 153      -2.438  12.605  -6.307  0.85 32.23     0.008 C 
HETATM    4  C4    D T 153      -1.777  11.428  -6.610  0.85 32.23     0.045 C 
HETATM    5  C5    D T 153      -0.536  11.134  -6.025  0.85 32.23     0.066 C 
HETATM    6  C6    D T 153       0.026  12.061  -5.122  0.85 32.23     0.022 C 
HETATM    7  S     D T 153      -2.555  10.312  -7.731  0.85 32.23    -0.084 SA
HETATM    8  C7    D T 153      -1.796   8.789  -7.362  0.85 32.23     0.045 C 
HETATM    9  C8    D T 153      -2.521   7.616  -7.623  0.85 32.23     0.008 C 
HETATM   10  C9    D T 153      -2.022   6.386  -7.244  0.85 32.23     0.001 C 
HETATM   11  C10   D T 153      -0.819   6.328  -6.556  0.85 32.23     0.002 C 
HETATM   12  C11   D T 153      -0.067   7.482  -6.391  0.85 32.23     0.018 C 
HETATM   13  C12   D T 153      -0.499   8.759  -6.823  0.85 32.23     0.066 C 
HETATM   14  N1    D T 153       0.228  10.025  -6.529  0.85 82.40    -0.327 N 
ENDROOT
BRANCH  14  15
HETATM   15  C13   D T 153       1.623   9.969  -6.085  0.85 82.40     0.108 C 
BRANCH  15  16
HETATM   16  C14   D T 153       2.578   9.597  -7.227  0.85 82.40     0.060 C 
BRANCH  16  17
HETATM   17  C15   D T 153       3.717   8.663  -6.776  0.85 82.40     0.252 C 
BRANCH  17  18
HETATM   18  N2    D T 153       3.526   7.258  -7.048  0.85 82.40     0.141 N 
HETATM   19  C16   D T 153       4.452   6.915  -8.088  0.85 82.40     0.285 C 
HETATM   20  C17   D T 153       4.410   5.485  -8.340  0.85 82.40     0.285 C 
HETATM   21  N3    D T 153       3.484   4.852  -7.444  0.85 82.40     0.143 N 
HETATM   22  C18   D T 153       3.885   5.122  -6.094  0.85 82.40     0.285 C 
HETATM   23  C20   D T 153       3.624   3.448  -7.636  0.85 82.40     0.285 C 
HETATM   24  C19   D T 153       3.877   6.551  -5.848  0.85 82.40     0.285 C 
ENDBRANCH  17  18
ENDBRANCH  16  17
ENDBRANCH  15  16
ENDBRANCH  14  15
BRANCH   1  25
HETATM   25  C21   D T 153      -0.111  14.226  -3.936  0.85 32.23     0.419 C 
HETATM   26  F1    D T 153       0.863  14.887  -4.487  0.85 32.23    -0.166 F 
HETATM   27  F2    D T 153       0.412  13.775  -2.852  0.85 32.23    -0.166 F 
HETATM   28  F3    D T 153      -0.924  15.155  -3.517  0.85 32.23    -0.166 F 
ENDBRANCH   1  25
TORSDOF 10
ENDMDL
MODEL 9
REMARK VINA RESULT:    -7.124      2.962      6.324
REMARK INTER + INTRA:          -9.957
REMARK INTER:                  -8.951
REMARK INTRA:                  -1.006
REMARK UNBOUND:                -0.751
REMARK  10 active torsions:
REMARK  status: ('A' for Active; 'I' for Inactive)
REMARK    1  A    between atoms: C1_1  and  C21_25 
REMARK    2  A    between atoms: N1_14  and  C13_15 
REMARK    3  A    between atoms: C13_15  and  C14_16 
REMARK    4  A    between atoms: C14_16  and  C15_17 
REMARK    5  A    between atoms: C15_17  and  N2_18 
REMARK    6  A    between atoms: C1_29  and  C21_53 
REMARK    7  A    between atoms: N1_42  and  C13_43 
REMARK    8  A    between atoms: C13_43  and  C14_44 
REMARK    9  A    between atoms: C14_44  and  C15_45 
REMARK   10  A    between atoms: C15_45  and  N2_46 
ROOT
HETATM    1  C1    D T 153      -0.457   4.563  -7.061  0.85 32.23     0.073 C 
HETATM    2  C2    D T 153      -0.986   4.995  -5.845  0.85 32.23     0.004 C 
HETATM    3  C3    D T 153      -1.000   6.341  -5.571  0.85 32.23     0.008 C 
HETATM    4  C4    D T 153      -0.882   7.254  -6.605  0.85 32.23     0.045 C 
HETATM    5  C5    D T 153      -0.509   6.835  -7.890  0.85 32.23     0.066 C 
HETATM    6  C6    D T 153      -0.255   5.464  -8.110  0.85 32.23     0.022 C 
HETATM    7  S     D T 153      -1.238   8.945  -6.254  0.85 32.23    -0.084 SA
HETATM    8  C7    D T 153      -1.600   9.605  -7.824  0.85 32.23     0.045 C 
HETATM    9  C8    D T 153      -2.450  10.721  -7.883  0.85 32.23     0.008 C 
HETATM   10  C9    D T 153      -2.867  11.216  -9.103  0.85 32.23     0.001 C 
HETATM   11  C10   D T 153      -2.478  10.568 -10.266  0.85 32.23     0.002 C 
HETATM   12  C11   D T 153      -1.561   9.529 -10.196  0.85 32.23     0.018 C 
HETATM   13  C12   D T 153      -1.046   9.027  -8.977  0.85 32.23     0.066 C 
HETATM   14  N1    D T 153      -0.173   7.824  -8.878  0.85 82.40    -0.327 N 
ENDROOT
BRANCH  14  15
HETATM   15  C13   D T 153       0.491   7.313 -10.079  0.85 82.40     0.108 C 
BRANCH  15  16
HETATM   16  C14   D T 153       2.020   7.408  -9.977  0.85 82.40     0.060 C 
BRANCH  16  17
HETATM   17  C15   D T 153       2.488   8.329  -8.835  0.85 82.40     0.252 C 
BRANCH  17  18
HETATM   18  N2    D T 153       3.151   7.678  -7.730  0.85 82.40     0.141 N 
HETATM   19  C16   D T 153       3.768   6.498  -8.264  0.85 82.40     0.285 C 
HETATM   20  C17   D T 153       4.561   5.843  -7.239  0.85 82.40     0.285 C 
HETATM   21  N3    D T 153       4.515   6.601  -6.020  0.85 82.40     0.143 N 
HETATM   22  C18   D T 153       5.002   7.924  -6.276  0.85 82.40     0.285 C 
HETATM   23  C20   D T 153       5.443   5.993  -5.126  0.85 82.40     0.285 C 
HETATM   24  C19   D T 153       4.171   8.578  -7.269  0.85 82.40     0.285 C 
ENDBRANCH  17  18
ENDBRANCH  16  17
ENDBRANCH  15  16
ENDBRANCH  14  15
BRANCH   1  25
HETATM   25  C21   D T 153      -0.105   3.160  -7.226  0.85 32.23     0.419 C 
HETATM   26  F1    D T 153      -0.502   2.629  -8.343  0.85 32.23    -0.166 F 
HETATM   27  F2    D T 153      -0.607   2.382  -6.333  0.85 32.23    -0.166 F 
HETATM   28  F3    D T 153       1.169   2.888  -7.182  0.85 32.23    -0.166 F 
ENDBRANCH   1  25
TORSDOF 10
ENDMDL
