MODEL 1
REMARK VINA RESULT:    -7.044      0.000      0.000
REMARK INTER + INTRA:          -8.132
REMARK INTER:                  -7.868
REMARK INTRA:                  -0.264
REMARK UNBOUND:                -0.264
REMARK  2 active torsions:
REMARK  status: ('A' for Active; 'I' for Inactive)
REMARK    1  A    between atoms: C5_4  and  O7_13 
REMARK    2  A    between atoms: C8_10  and  O7_13 
ROOT
HETATM    1  O7    D T 705      -0.518   4.451  -7.185  1.00 22.05    -0.304 OA
ENDROOT
BRANCH   1   2
HETATM    2  C5    D T 705       0.827   4.505  -7.338  1.00 22.37     0.125 A 
HETATM    3  C6    D T 705       1.556   3.232  -7.210  1.00 22.42     0.154 A 
HETATM    4  C1    D T 705       2.938   3.254  -7.355  1.00 22.18     0.041 A 
HETATM    5  O17   D T 705       0.856   2.121  -6.961  1.00 21.45    -0.188 OA
HETATM    6  C2    D T 705       3.590   4.448  -7.610  1.00 22.53     0.060 A 
HETATM    7  C3    D T 705       2.893   5.657  -7.727  1.00 22.56     0.014 A 
HETATM    8 CL14   D T 705       5.363   4.429  -7.796  1.00 21.73    -0.082 Cl
HETATM    9  C4    D T 705       1.508   5.685  -7.589  1.00 22.81     0.028 A 
ENDBRANCH   1   2
BRANCH   1  10
HETATM   10  C8    D T 705      -1.268   5.535  -7.489  1.00 21.94     0.111 A 
HETATM   11  C9    D T 705      -1.698   6.381  -6.369  1.00 22.85     0.081 A 
HETATM   12  C10   D T 705      -2.468   7.506  -6.610  1.00 22.60     0.025 A 
HETATM   13 CL16   D T 705      -1.194   5.909  -4.730  1.00 21.30    -0.080 Cl
HETATM   14  C11   D T 705      -2.817   7.795  -7.914  1.00 22.34     0.059 A 
HETATM   15  C12   D T 705      -2.408   7.000  -8.986  1.00 22.46     0.013 A 
HETATM   16 CL15   D T 705      -3.813   9.222  -8.244  1.00 24.32    -0.082 Cl
HETATM   17  C13   D T 705      -1.640   5.866  -8.783  1.00 21.87     0.026 A 
ENDBRANCH   1  10
TORSDOF 2
ENDMDL
MODEL 2
REMARK VINA RESULT:    -6.968      1.446      5.976
REMARK INTER + INTRA:          -8.046
REMARK INTER:                  -7.777
REMARK INTRA:                  -0.270
REMARK UNBOUND:                -0.264
REMARK  2 active torsions:
REMARK  status: ('A' for Active; 'I' for Inactive)
REMARK    1  A    between atoms: C5_4  and  O7_13 
REMARK    2  A    between atoms: C8_10  and  O7_13 
ROOT
HETATM    1  O7    D T 705      -0.442   4.467  -6.861  1.00 22.05    -0.304 OA
ENDROOT
BRANCH   1   2
HETATM    2  C5    D T 705      -1.202   5.549  -7.155  1.00 22.37     0.125 A 
HETATM    3  C6    D T 705      -1.653   6.366  -6.016  1.00 22.42     0.154 A 
HETATM    4  C1    D T 705      -2.440   7.481  -6.284  1.00 22.18     0.041 A 
HETATM    5  O17   D T 705      -1.286   5.999  -4.786  1.00 21.45    -0.188 OA
HETATM    6  C2    D T 705      -2.779   7.793  -7.589  1.00 22.53     0.060 A 
HETATM    7  C3    D T 705      -2.351   7.011  -8.669  1.00 22.56     0.014 A 
HETATM    8 CL14   D T 705      -3.784   9.236  -7.888  1.00 21.73    -0.082 Cl
HETATM    9  C4    D T 705      -1.561   5.885  -8.450  1.00 22.81     0.028 A 
ENDBRANCH   1   2
BRANCH   1  10
HETATM   10  C8    D T 705       0.891   4.504  -7.094  1.00 21.94     0.111 A 
HETATM   11  C9    D T 705       1.589   3.214  -7.163  1.00 22.85     0.081 A 
HETATM   12  C10   D T 705       2.953   3.181  -7.398  1.00 22.60     0.025 A 
HETATM   13 CL16   D T 705       0.627   1.735  -6.940  1.00 21.30    -0.080 Cl
HETATM   14  C11   D T 705       3.621   4.378  -7.555  1.00 22.34     0.059 A 
HETATM   15  C12   D T 705       2.965   5.608  -7.497  1.00 22.46     0.013 A 
HETATM   16 CL15   D T 705       5.369   4.359  -7.844  1.00 24.32    -0.082 Cl
HETATM   17  C13   D T 705       1.603   5.682  -7.260  1.00 21.87     0.026 A 
ENDBRANCH   1  10
TORSDOF 2
ENDMDL
MODEL 3
REMARK VINA RESULT:    -6.847      1.425      5.926
REMARK INTER + INTRA:          -7.912
REMARK INTER:                  -7.772
REMARK INTRA:                  -0.140
REMARK UNBOUND:                -0.264
REMARK  2 active torsions:
REMARK  status: ('A' for Active; 'I' for Inactive)
REMARK    1  A    between atoms: C5_4  and  O7_13 
REMARK    2  A    between atoms: C8_10  and  O7_13 
ROOT
HETATM    1  O7    D T 705      -0.438   4.468  -6.817  1.00 22.05    -0.304 OA
ENDROOT
BRANCH   1   2
HETATM    2  C5    D T 705      -1.193   5.574  -7.021  1.00 22.37     0.125 A 
HETATM    3  C6    D T 705      -1.690   5.788  -8.391  1.00 22.42     0.154 A 
HETATM    4  C1    D T 705      -2.464   6.917  -8.635  1.00 22.18     0.041 A 
HETATM    5  O17   D T 705      -1.376   4.890  -9.328  1.00 21.45    -0.188 OA
HETATM    6  C2    D T 705      -2.743   7.802  -7.609  1.00 22.53     0.060 A 
HETATM    7  C3    D T 705      -2.265   7.597  -6.309  1.00 22.56     0.014 A 
HETATM    8 CL14   D T 705      -3.744   9.234  -7.966  1.00 21.73    -0.082 Cl
HETATM    9  C4    D T 705      -1.486   6.481  -6.015  1.00 22.81     0.028 A 
ENDBRANCH   1   2
BRANCH   1  10
HETATM   10  C8    D T 705       0.893   4.516  -7.054  1.00 21.94     0.111 A 
HETATM   11  C9    D T 705       1.594   3.231  -7.167  1.00 22.85     0.081 A 
HETATM   12  C10   D T 705       2.957   3.208  -7.409  1.00 22.60     0.025 A 
HETATM   13 CL16   D T 705       0.637   1.743  -6.987  1.00 21.30    -0.080 Cl
HETATM   14  C11   D T 705       3.622   4.411  -7.531  1.00 22.34     0.059 A 
HETATM   15  C12   D T 705       2.964   5.637  -7.431  1.00 22.46     0.013 A 
HETATM   16 CL15   D T 705       5.368   4.405  -7.828  1.00 24.32    -0.082 Cl
HETATM   17  C13   D T 705       1.602   5.700  -7.187  1.00 21.87     0.026 A 
ENDBRANCH   1  10
TORSDOF 2
ENDMDL
MODEL 4
REMARK VINA RESULT:    -6.467      1.090      1.816
REMARK INTER + INTRA:          -7.487
REMARK INTER:                  -7.486
REMARK INTRA:                  -0.002
REMARK UNBOUND:                -0.264
REMARK  2 active torsions:
REMARK  status: ('A' for Active; 'I' for Inactive)
REMARK    1  A    between atoms: C5_4  and  O7_13 
REMARK    2  A    between atoms: C8_10  and  O7_13 
ROOT
HETATM    1  O7    D T 705      -0.031   4.669  -6.488  1.00 22.05    -0.304 OA
ENDROOT
BRANCH   1   2
HETATM    2  C5    D T 705       1.281   4.557  -6.804  1.00 22.37     0.125 A 
HETATM    3  C6    D T 705       2.104   5.768  -6.640  1.00 22.42     0.154 A 
HETATM    4  C1    D T 705       3.454   5.688  -6.962  1.00 22.18     0.041 A 
HETATM    5  O17   D T 705       1.515   6.880  -6.191  1.00 21.45    -0.188 OA
HETATM    6  C2    D T 705       3.988   4.497  -7.423  1.00 22.53     0.060 A 
HETATM    7  C3    D T 705       3.201   3.350  -7.582  1.00 22.56     0.014 A 
HETATM    8 CL14   D T 705       5.726   4.438  -7.818  1.00 21.73    -0.082 Cl
HETATM    9  C4    D T 705       1.844   3.381  -7.273  1.00 22.81     0.028 A 
ENDBRANCH   1   2
BRANCH   1  10
HETATM   10  C8    D T 705      -0.830   5.470  -7.230  1.00 21.94     0.111 A 
HETATM   11  C9    D T 705      -1.727   6.374  -6.499  1.00 22.85     0.081 A 
HETATM   12  C10   D T 705      -2.572   7.220  -7.198  1.00 22.60     0.025 A 
HETATM   13 CL16   D T 705      -1.677   6.337  -4.722  1.00 21.30    -0.080 Cl
HETATM   14  C11   D T 705      -2.547   7.180  -8.577  1.00 22.34     0.059 A 
HETATM   15  C12   D T 705      -1.695   6.328  -9.280  1.00 22.46     0.013 A 
HETATM   16 CL15   D T 705      -3.629   8.244  -9.490  1.00 24.32    -0.082 Cl
HETATM   17  C13   D T 705      -0.838   5.466  -8.616  1.00 21.87     0.026 A 
ENDBRANCH   1  10
TORSDOF 2
ENDMDL
MODEL 5
REMARK VINA RESULT:    -6.213      3.207      4.100
REMARK INTER + INTRA:          -7.204
REMARK INTER:                  -7.118
REMARK INTRA:                  -0.086
REMARK UNBOUND:                -0.264
REMARK  2 active torsions:
REMARK  status: ('A' for Active; 'I' for Inactive)
REMARK    1  A    between atoms: C5_4  and  O7_13 
REMARK    2  A    between atoms: C8_10  and  O7_13 
ROOT
HETATM    1  O7    D T 705      -1.572   6.907  -8.225  1.00 22.05    -0.304 OA
ENDROOT
BRANCH   1   2
HETATM    2  C5    D T 705      -1.279   5.640  -7.847  1.00 22.37     0.125 A 
HETATM    3  C6    D T 705      -1.330   4.611  -8.899  1.00 22.42     0.154 A 
HETATM    4  C1    D T 705      -1.041   3.298  -8.542  1.00 22.18     0.041 A 
HETATM    5  O17   D T 705      -1.651   4.986 -10.140  1.00 21.45    -0.188 OA
HETATM    6  C2    D T 705      -0.720   2.990  -7.232  1.00 22.53     0.060 A 
HETATM    7  C3    D T 705      -0.676   3.972  -6.234  1.00 22.56     0.014 A 
HETATM    8 CL14   D T 705      -0.350   1.295  -6.820  1.00 21.73    -0.082 Cl
HETATM    9  C4    D T 705      -0.958   5.300  -6.543  1.00 22.81     0.028 A 
ENDBRANCH   1   2
BRANCH   1  10
HETATM   10  C8    D T 705      -0.981   7.946  -7.591  1.00 21.94     0.111 A 
HETATM   11  C9    D T 705      -1.849   9.062  -7.194  1.00 22.85     0.081 A 
HETATM   12  C10   D T 705      -1.308  10.157  -6.541  1.00 22.60     0.025 A 
HETATM   13 CL16   D T 705      -3.581   8.946  -7.578  1.00 21.30    -0.080 Cl
HETATM   14  C11   D T 705       0.049  10.165  -6.288  1.00 22.34     0.059 A 
HETATM   15  C12   D T 705       0.880   9.107  -6.656  1.00 22.46     0.013 A 
HETATM   16 CL15   D T 705       0.763  11.563  -5.466  1.00 24.32    -0.082 Cl
HETATM   17  C13   D T 705       0.376   7.997  -7.312  1.00 21.87     0.026 A 
ENDBRANCH   1  10
TORSDOF 2
ENDMDL
MODEL 6
REMARK VINA RESULT:    -5.957      2.964      4.613
REMARK INTER + INTRA:          -6.918
REMARK INTER:                  -6.446
REMARK INTRA:                  -0.472
REMARK UNBOUND:                -0.264
REMARK  2 active torsions:
REMARK  status: ('A' for Active; 'I' for Inactive)
REMARK    1  A    between atoms: C5_4  and  O7_13 
REMARK    2  A    between atoms: C8_10  and  O7_13 
ROOT
HETATM    1  O7    D T 705       1.830   6.255  -6.208  1.00 22.05    -0.304 OA
ENDROOT
BRANCH   1   2
HETATM    2  C5    D T 705       2.720   6.900  -7.000  1.00 22.37     0.125 A 
HETATM    3  C6    D T 705       4.104   6.980  -6.505  1.00 22.42     0.154 A 
HETATM    4  C1    D T 705       5.041   7.641  -7.292  1.00 22.18     0.041 A 
HETATM    5  O17   D T 705       4.392   6.416  -5.329  1.00 21.45    -0.188 OA
HETATM    6  C2    D T 705       4.662   8.201  -8.499  1.00 22.53     0.060 A 
HETATM    7  C3    D T 705       3.343   8.126  -8.964  1.00 22.56     0.014 A 
HETATM    8 CL14   D T 705       5.897   9.033  -9.479  1.00 21.73    -0.082 Cl
HETATM    9  C4    D T 705       2.369   7.474  -8.211  1.00 22.81     0.028 A 
ENDBRANCH   1   2
BRANCH   1  10
HETATM   10  C8    D T 705       1.391   5.024  -6.562  1.00 21.94     0.111 A 
HETATM   11  C9    D T 705      -0.061   4.805  -6.537  1.00 22.85     0.081 A 
HETATM   12  C10   D T 705      -0.577   3.569  -6.888  1.00 22.60     0.025 A 
HETATM   13 CL16   D T 705      -1.099   6.165  -6.053  1.00 21.30    -0.080 Cl
HETATM   14  C11   D T 705       0.304   2.568  -7.246  1.00 22.34     0.059 A 
HETATM   15  C12   D T 705       1.684   2.769  -7.278  1.00 22.46     0.013 A 
HETATM   16 CL15   D T 705      -0.334   0.975  -7.685  1.00 24.32    -0.082 Cl
HETATM   17  C13   D T 705       2.237   3.991  -6.932  1.00 21.87     0.026 A 
ENDBRANCH   1  10
TORSDOF 2
ENDMDL
MODEL 7
REMARK VINA RESULT:    -5.922      2.233      6.071
REMARK INTER + INTRA:          -6.878
REMARK INTER:                  -6.645
REMARK INTRA:                  -0.233
REMARK UNBOUND:                -0.264
REMARK  2 active torsions:
REMARK  status: ('A' for Active; 'I' for Inactive)
REMARK    1  A    between atoms: C5_4  and  O7_13 
REMARK    2  A    between atoms: C8_10  and  O7_13 
ROOT
HETATM    1  O7    D T 705      -1.706   6.118  -7.241  1.00 22.05    -0.304 OA
ENDROOT
BRANCH   1   2
HETATM    2  C5    D T 705      -2.144   6.534  -8.453  1.00 22.37     0.125 A 
HETATM    3  C6    D T 705      -2.835   7.834  -8.493  1.00 22.42     0.154 A 
HETATM    4  C1    D T 705      -3.303   8.287  -9.722  1.00 22.18     0.041 A 
HETATM    5  O17   D T 705      -2.980   8.512  -7.351  1.00 21.45    -0.188 OA
HETATM    6  C2    D T 705      -3.115   7.523 -10.860  1.00 22.53     0.060 A 
HETATM    7  C3    D T 705      -2.461   6.285 -10.817  1.00 22.56     0.014 A 
HETATM    8 CL14   D T 705      -3.725   8.146 -12.415  1.00 21.73    -0.082 Cl
HETATM    9  C4    D T 705      -1.975   5.790  -9.610  1.00 22.81     0.028 A 
ENDBRANCH   1   2
BRANCH   1  10
HETATM   10  C8    D T 705      -0.623   5.310  -7.164  1.00 21.94     0.111 A 
HETATM   11  C9    D T 705       0.673   5.957  -6.925  1.00 22.85     0.081 A 
HETATM   12  C10   D T 705       1.821   5.188  -6.836  1.00 22.60     0.025 A 
HETATM   13 CL16   D T 705       0.700   7.727  -6.758  1.00 21.30    -0.080 Cl
HETATM   14  C11   D T 705       1.707   3.820  -6.982  1.00 22.34     0.059 A 
HETATM   15  C12   D T 705       0.479   3.196  -7.204  1.00 22.46     0.013 A 
HETATM   16 CL15   D T 705       3.165   2.818  -6.885  1.00 24.32    -0.082 Cl
HETATM   17  C13   D T 705      -0.690   3.932  -7.302  1.00 21.87     0.026 A 
ENDBRANCH   1  10
TORSDOF 2
ENDMDL
MODEL 8
REMARK VINA RESULT:    -5.901      3.189      5.520
REMARK INTER + INTRA:          -6.856
REMARK INTER:                  -6.325
REMARK INTRA:                  -0.530
REMARK UNBOUND:                -0.264
REMARK  2 active torsions:
REMARK  status: ('A' for Active; 'I' for Inactive)
REMARK    1  A    between atoms: C5_4  and  O7_13 
REMARK    2  A    between atoms: C8_10  and  O7_13 
ROOT
HETATM    1  O7    D T 705       0.408   6.528  -8.645  1.00 22.05    -0.304 OA
ENDROOT
BRANCH   1   2
HETATM    2  C5    D T 705       0.053   7.616  -7.921  1.00 22.37     0.125 A 
HETATM    3  C6    D T 705       1.152   8.405  -7.338  1.00 22.42     0.154 A 
HETATM    4  C1    D T 705       0.821   9.526  -6.584  1.00 22.18     0.041 A 
HETATM    5  O17   D T 705       2.407   8.007  -7.559  1.00 21.45    -0.188 OA
HETATM    6  C2    D T 705      -0.506   9.871  -6.399  1.00 22.53     0.060 A 
HETATM    7  C3    D T 705      -1.547   9.115  -6.953  1.00 22.56     0.014 A 
HETATM    8 CL14   D T 705      -0.884  11.320  -5.431  1.00 21.73    -0.082 Cl
HETATM    9  C4    D T 705      -1.266   7.985  -7.715  1.00 22.81     0.028 A 
ENDBRANCH   1   2
BRANCH   1  10
HETATM   10  C8    D T 705       0.118   5.292  -8.176  1.00 21.94     0.111 A 
HETATM   11  C9    D T 705      -0.984   4.575  -8.829  1.00 22.85     0.081 A 
HETATM   12  C10   D T 705      -1.333   3.306  -8.399  1.00 22.60     0.025 A 
HETATM   13 CL16   D T 705      -1.828   5.389 -10.167  1.00 21.30    -0.080 Cl
HETATM   14  C11   D T 705      -0.626   2.753  -7.350  1.00 22.34     0.059 A 
HETATM   15  C12   D T 705       0.427   3.423  -6.727  1.00 22.46     0.013 A 
HETATM   16 CL15   D T 705      -1.064   1.135  -6.774  1.00 24.32    -0.082 Cl
HETATM   17  C13   D T 705       0.802   4.695  -7.129  1.00 21.87     0.026 A 
ENDBRANCH   1  10
TORSDOF 2
ENDMDL
MODEL 9
REMARK VINA RESULT:    -5.841      3.971      5.515
REMARK INTER + INTRA:          -6.788
REMARK INTER:                  -6.243
REMARK INTRA:                  -0.545
REMARK UNBOUND:                -0.264
REMARK  2 active torsions:
REMARK  status: ('A' for Active; 'I' for Inactive)
REMARK    1  A    between atoms: C5_4  and  O7_13 
REMARK    2  A    between atoms: C8_10  and  O7_13 
ROOT
HETATM    1  O7    D T 705      -0.577   9.713  -7.762  1.00 22.05    -0.304 OA
ENDROOT
BRANCH   1   2
HETATM    2  C5    D T 705      -0.647   8.412  -7.393  1.00 22.37     0.125 A 
HETATM    3  C6    D T 705       0.468   7.548  -7.815  1.00 22.42     0.154 A 
HETATM    4  C1    D T 705       0.425   6.205  -7.457  1.00 22.18     0.041 A 
HETATM    5  O17   D T 705       1.464   8.093  -8.519  1.00 21.45    -0.188 OA
HETATM    6  C2    D T 705      -0.645   5.716  -6.728  1.00 22.53     0.060 A 
HETATM    7  C3    D T 705      -1.705   6.541  -6.333  1.00 22.56     0.014 A 
HETATM    8 CL14   D T 705      -0.657   3.989  -6.285  1.00 21.73    -0.082 Cl
HETATM    9  C4    D T 705      -1.706   7.892  -6.668  1.00 22.81     0.028 A 
ENDBRANCH   1   2
BRANCH   1  10
HETATM   10  C8    D T 705      -0.503  10.674  -6.812  1.00 21.94     0.111 A 
HETATM   11  C9    D T 705      -1.694  11.508  -6.616  1.00 22.85     0.081 A 
HETATM   12  C10   D T 705      -1.685  12.510  -5.660  1.00 22.60     0.025 A 
HETATM   13 CL16   D T 705      -3.115  11.181  -7.634  1.00 21.30    -0.080 Cl
HETATM   14  C11   D T 705      -0.536  12.697  -4.917  1.00 22.34     0.059 A 
HETATM   15  C12   D T 705       0.599  11.905  -5.093  1.00 22.46     0.013 A 
HETATM   16 CL15   D T 705      -0.498  13.981  -3.698  1.00 24.32    -0.082 Cl
HETATM   17  C13   D T 705       0.627  10.896  -6.041  1.00 21.87     0.026 A 
ENDBRANCH   1  10
TORSDOF 2
ENDMDL
