MODEL 1
REMARK VINA RESULT:    -8.908      0.000      0.000
REMARK INTER + INTRA:         -10.317
REMARK INTER:                  -9.949
REMARK INTRA:                  -0.368
REMARK UNBOUND:                -0.368
REMARK  2 active torsions:
REMARK  status: ('A' for Active; 'I' for Inactive)
REMARK    1  A    between atoms: CAX_24  and  NBD_30 
REMARK    2  A    between atoms: CAY_25  and  CAZ_26 
ROOT
HETATM    1  CAE   D T 501       0.801   9.313  -6.939  1.00 28.11     0.002 A 
HETATM    2  CAF   D T 501      -1.583   8.973  -7.039  1.00 31.06     0.002 A 
HETATM    3  CAG   D T 501       0.995   8.037  -7.494  1.00 28.67     0.017 A 
HETATM    4  CAH   D T 501      -1.390   7.689  -7.565  1.00 30.46     0.017 A 
HETATM    5  CAK   D T 501      -1.943  11.768  -6.229  1.00 23.78     0.102 A 
HETATM    6  CAL   D T 501       0.227  14.776  -3.592  1.00 24.69     0.124 A 
HETATM    7  CAM   D T 501       0.287  11.625  -5.383  1.00 24.63     0.104 A 
HETATM    8  NAS   D T 501      -2.097  12.956  -5.608  1.00 20.85    -0.225 NA
HETATM    9  NAT   D T 501       1.001  13.701  -3.905  1.00 25.16    -0.162 NA
HETATM   10  CAV   D T 501      -0.493   9.796  -6.734  1.00 25.80     0.003 A 
HETATM   11  CAW   D T 501      -0.716  11.070  -6.151  1.00 25.02     0.038 A 
HETATM   12  CAX   D T 501      -0.091   7.215  -7.774  1.00 27.25     0.056 A 
HETATM   13  CAZ   D T 501      -0.891  14.586  -4.146  1.00 24.84     0.057 A 
HETATM   14  CBC   D T 501      -1.104  13.503  -4.880  1.00 23.94     0.165 A 
HETATM   15  NBE   D T 501       0.112  12.813  -4.777  1.00 26.21    -0.211 N 
ENDROOT
BRANCH  13  16
HETATM   16  CAY   D T 501      -1.846  15.634  -3.942  1.00 23.50     0.007 A 
HETATM   17  CAD   D T 501      -1.531  16.883  -4.397  1.00 28.61     0.021 A 
HETATM   18  CAC   D T 501      -2.392  17.946  -4.206  1.00 31.28     0.099 A 
HETATM   19  NAR   D T 501      -3.546  17.813  -3.572  1.00 29.97    -0.244 NA
HETATM   20  CBA   D T 501      -3.931  16.627  -3.099  1.00 29.39     0.081 A 
HETATM   21  CAI   D T 501      -5.158  16.494  -2.427  1.00 24.64     0.019 A 
HETATM   22  CBB   D T 501      -3.077  15.478  -3.248  1.00 25.45     0.018 A 
HETATM   23  CAA   D T 501      -5.534  15.280  -1.917  1.00 25.05     0.002 A 
HETATM   24  CAB   D T 501      -4.733  14.173  -2.054  1.00 24.88     0.000 A 
HETATM   25  CAJ   D T 501      -3.508  14.262  -2.702  1.00 27.86     0.002 A 
ENDBRANCH  13  16
BRANCH  12  26
HETATM   26  NBD   D T 501       0.131   5.849  -8.334  1.00 33.43    -0.344 N 
HETATM   27  CAP   D T 501      -0.933   4.868  -8.108  1.00 26.51     0.140 C 
HETATM   28  CAN   D T 501      -0.588   4.145  -6.763  1.00 28.69     0.314 C 
HETATM   29  NAU   D T 501       0.747   3.658  -6.763  1.00 26.40     0.343 N 
HETATM   30  CAO   D T 501       1.745   4.674  -6.972  1.00 27.47     0.314 C 
HETATM   31  CAQ   D T 501       1.494   5.365  -8.324  1.00 29.57     0.140 C 
ENDBRANCH  12  26
TORSDOF 2
ENDMDL
MODEL 2
REMARK VINA RESULT:    -8.799      2.180     10.359
REMARK INTER + INTRA:         -10.196
REMARK INTER:                  -9.937
REMARK INTRA:                  -0.258
REMARK UNBOUND:                -0.368
REMARK  2 active torsions:
REMARK  status: ('A' for Active; 'I' for Inactive)
REMARK    1  A    between atoms: CAX_24  and  NBD_30 
REMARK    2  A    between atoms: CAY_25  and  CAZ_26 
ROOT
HETATM    1  CAE   D T 501       0.941  12.256  -5.092  1.00 28.11     0.002 A 
HETATM    2  CAF   D T 501      -1.453  12.247  -5.375  1.00 31.06     0.002 A 
HETATM    3  CAG   D T 501       0.853  13.516  -4.477  1.00 28.67     0.017 A 
HETATM    4  CAH   D T 501      -1.539  13.517  -4.788  1.00 30.46     0.017 A 
HETATM    5  CAK   D T 501      -1.260   9.476  -6.311  1.00 23.78     0.102 A 
HETATM    6  CAL   D T 501       1.722   6.948  -8.642  1.00 24.69     0.124 A 
HETATM    7  CAM   D T 501       1.029   9.978  -6.777  1.00 24.63     0.104 A 
HETATM    8  NAS   D T 501      -1.136   8.312  -6.982  1.00 20.85    -0.225 NA
HETATM    9  NAT   D T 501       2.268   8.104  -8.175  1.00 25.16    -0.162 NA
HETATM   10  CAV   D T 501      -0.219  11.605  -5.520  1.00 25.80     0.003 A 
HETATM   11  CAW   D T 501      -0.154  10.345  -6.168  1.00 25.02     0.038 A 
HETATM   12  CAX   D T 501      -0.374  14.160  -4.356  1.00 27.25     0.056 A 
HETATM   13  CAZ   D T 501       0.515   6.948  -8.273  1.00 24.84     0.057 A 
HETATM   14  CBC   D T 501       0.029   7.951  -7.553  1.00 23.94     0.165 A 
HETATM   15  NBE   D T 501       1.130   8.811  -7.436  1.00 26.21    -0.211 N 
ENDROOT
BRANCH  13  16
HETATM   16  CAY   D T 501      -0.229   5.787  -8.660  1.00 23.50     0.007 A 
HETATM   17  CAD   D T 501      -1.229   5.945  -9.577  1.00 28.61     0.021 A 
HETATM   18  CAC   D T 501      -2.007   4.873  -9.971  1.00 31.28     0.099 A 
HETATM   19  NAR   D T 501      -1.832   3.657  -9.479  1.00 29.97    -0.244 NA
HETATM   20  CBA   D T 501      -0.875   3.416  -8.582  1.00 29.39     0.081 A 
HETATM   21  CAI   D T 501      -0.695   2.122  -8.064  1.00 24.64     0.019 A 
HETATM   22  CBB   D T 501      -0.037   4.488  -8.114  1.00 25.45     0.018 A 
HETATM   23  CAA   D T 501       0.269   1.887  -7.121  1.00 25.05     0.002 A 
HETATM   24  CAB   D T 501       1.079   2.898  -6.666  1.00 24.88     0.000 A 
HETATM   25  CAJ   D T 501       0.929   4.194  -7.143  1.00 27.86     0.002 A 
ENDBRANCH  13  16
BRANCH  12  26
HETATM   26  NBD   D T 501      -0.449  15.512  -3.729  1.00 33.43    -0.344 N 
HETATM   27  CAP   D T 501      -1.737  16.204  -3.817  1.00 26.51     0.140 C 
HETATM   28  CAN   D T 501      -1.694  17.047  -5.136  1.00 28.69     0.314 C 
HETATM   29  NAU   D T 501      -0.525  17.854  -5.200  1.00 26.40     0.343 N 
HETATM   30  CAO   D T 501       0.706  17.111  -5.125  1.00 27.47     0.314 C 
HETATM   31  CAQ   D T 501       0.747  16.322  -3.805  1.00 29.57     0.140 C 
ENDBRANCH  12  26
TORSDOF 2
ENDMDL
MODEL 3
REMARK VINA RESULT:    -8.645      2.165     10.589
REMARK INTER + INTRA:         -10.024
REMARK INTER:                  -9.955
REMARK INTRA:                  -0.068
REMARK UNBOUND:                -0.368
REMARK  2 active torsions:
REMARK  status: ('A' for Active; 'I' for Inactive)
REMARK    1  A    between atoms: CAX_24  and  NBD_30 
REMARK    2  A    between atoms: CAY_25  and  CAZ_26 
ROOT
HETATM    1  CAE   D T 501      -1.479  12.111  -7.647  1.00 28.11     0.002 A 
HETATM    2  CAF   D T 501      -1.273  11.478  -5.330  1.00 31.06     0.002 A 
HETATM    3  CAG   D T 501      -1.705  13.441  -7.252  1.00 28.67     0.017 A 
HETATM    4  CAH   D T 501      -1.528  12.798  -4.934  1.00 30.46     0.017 A 
HETATM    5  CAK   D T 501      -0.444   8.807  -6.208  1.00 23.78     0.102 A 
HETATM    6  CAL   D T 501      -1.361   6.010  -9.679  1.00 24.69     0.124 A 
HETATM    7  CAM   D T 501      -1.512   9.348  -8.275  1.00 24.63     0.104 A 
HETATM    8  NAS   D T 501      -0.324   7.525  -6.611  1.00 20.85    -0.225 NA
HETATM    9  NAT   D T 501      -1.757   7.289  -9.919  1.00 25.16    -0.162 NA
HETATM   10  CAV   D T 501      -1.236  11.129  -6.684  1.00 25.80     0.003 A 
HETATM   11  CAW   D T 501      -1.030   9.776  -7.055  1.00 25.02     0.038 A 
HETATM   12  CAX   D T 501      -1.764  13.779  -5.903  1.00 27.25     0.056 A 
HETATM   13  CAZ   D T 501      -0.853   6.004  -8.523  1.00 24.84     0.057 A 
HETATM   14  CBC   D T 501      -0.776   7.122  -7.815  1.00 23.94     0.165 A 
HETATM   15  NBE   D T 501      -1.378   8.066  -8.658  1.00 26.21    -0.211 N 
ENDROOT
BRANCH  13  16
HETATM   16  CAY   D T 501      -0.355   4.731  -8.096  1.00 23.50     0.007 A 
HETATM   17  CAD   D T 501      -1.233   3.686  -8.043  1.00 28.61     0.021 A 
HETATM   18  CAC   D T 501      -0.826   2.438  -7.608  1.00 31.28     0.099 A 
HETATM   19  NAR   D T 501       0.416   2.198  -7.217  1.00 29.97    -0.244 NA
HETATM   20  CBA   D T 501       1.336   3.163  -7.242  1.00 29.39     0.081 A 
HETATM   21  CAI   D T 501       2.652   2.900  -6.825  1.00 24.64     0.019 A 
HETATM   22  CBB   D T 501       0.980   4.491  -7.667  1.00 25.45     0.018 A 
HETATM   23  CAA   D T 501       3.585   3.902  -6.822  1.00 25.05     0.002 A 
HETATM   24  CAB   D T 501       3.263   5.174  -7.229  1.00 24.88     0.000 A 
HETATM   25  CAJ   D T 501       1.972   5.480  -7.638  1.00 27.86     0.002 A 
ENDBRANCH  13  16
BRANCH  12  26
HETATM   26  NBD   D T 501      -2.036  15.188  -5.498  1.00 33.43    -0.344 N 
HETATM   27  CAP   D T 501      -1.775  16.221  -6.502  1.00 26.51     0.140 C 
HETATM   28  CAN   D T 501      -0.289  16.670  -6.297  1.00 28.69     0.314 C 
HETATM   29  NAU   D T 501      -0.032  17.011  -4.941  1.00 26.40     0.343 N 
HETATM   30  CAO   D T 501      -0.293  15.948  -4.006  1.00 27.47     0.314 C 
HETATM   31  CAQ   D T 501      -1.767  15.522  -4.116  1.00 29.57     0.140 C 
ENDBRANCH  12  26
TORSDOF 2
ENDMDL
MODEL 4
REMARK VINA RESULT:    -8.592      7.257     11.413
REMARK INTER + INTRA:          -9.965
REMARK INTER:                  -9.468
REMARK INTRA:                  -0.496
REMARK UNBOUND:                -0.368
REMARK  2 active torsions:
REMARK  status: ('A' for Active; 'I' for Inactive)
REMARK    1  A    between atoms: CAX_24  and  NBD_30 
REMARK    2  A    between atoms: CAY_25  and  CAZ_26 
ROOT
HETATM    1  CAE   D T 501       7.908  10.928  -7.222  1.00 28.11     0.002 A 
HETATM    2  CAF   D T 501       6.628  11.169  -5.194  1.00 31.06     0.002 A 
HETATM    3  CAG   D T 501       8.645  12.074  -6.880  1.00 28.67     0.017 A 
HETATM    4  CAH   D T 501       7.342  12.329  -4.866  1.00 30.46     0.017 A 
HETATM    5  CAK   D T 501       5.374   8.580  -5.762  1.00 23.78     0.102 A 
HETATM    6  CAL   D T 501       4.132   6.221  -9.451  1.00 24.69     0.124 A 
HETATM    7  CAM   D T 501       6.039   8.956  -8.027  1.00 24.63     0.104 A 
HETATM    8  NAS   D T 501       4.621   7.535  -6.162  1.00 20.85    -0.225 NA
HETATM    9  NAT   D T 501       4.991   7.236  -9.744  1.00 25.16    -0.162 NA
HETATM   10  CAV   D T 501       6.912  10.457  -6.364  1.00 25.80     0.003 A 
HETATM   11  CAW   D T 501       6.136   9.317  -6.699  1.00 25.02     0.038 A 
HETATM   12  CAX   D T 501       8.343  12.792  -5.727  1.00 27.25     0.056 A 
HETATM   13  CAZ   D T 501       3.939   6.264  -8.204  1.00 24.84     0.057 A 
HETATM   14  CBC   D T 501       4.551   7.174  -7.458  1.00 23.94     0.165 A 
HETATM   15  NBE   D T 501       5.285   7.906  -8.401  1.00 26.21    -0.211 N 
ENDROOT
BRANCH  13  16
HETATM   16  CAY   D T 501       3.064   5.249  -7.699  1.00 23.50     0.007 A 
HETATM   17  CAD   D T 501       3.550   3.976  -7.605  1.00 28.61     0.021 A 
HETATM   18  CAC   D T 501       2.750   2.942  -7.156  1.00 31.28     0.099 A 
HETATM   19  NAR   D T 501       1.487   3.128  -6.808  1.00 29.97    -0.244 NA
HETATM   20  CBA   D T 501       0.937   4.342  -6.867  1.00 29.39     0.081 A 
HETATM   21  CAI   D T 501      -0.406   4.532  -6.495  1.00 24.64     0.019 A 
HETATM   22  CBB   D T 501       1.705   5.462  -7.340  1.00 25.45     0.018 A 
HETATM   23  CAA   D T 501      -0.975   5.773  -6.586  1.00 25.05     0.002 A 
HETATM   24  CAB   D T 501      -0.254   6.854  -7.032  1.00 24.88     0.000 A 
HETATM   25  CAJ   D T 501       1.071   6.709  -7.420  1.00 27.86     0.002 A 
ENDBRANCH  13  16
BRANCH  12  26
HETATM   26  NBD   D T 501       9.113  14.025  -5.392  1.00 33.43    -0.344 N 
HETATM   27  CAP   D T 501      10.489  14.093  -5.888  1.00 26.51     0.140 C 
HETATM   28  CAN   D T 501      11.393  13.477  -4.768  1.00 28.69     0.314 C 
HETATM   29  NAU   D T 501      11.135  14.075  -3.504  1.00 26.40     0.343 N 
HETATM   30  CAO   D T 501       9.768  13.958  -3.066  1.00 27.47     0.314 C 
HETATM   31  CAQ   D T 501       8.842  14.620  -4.101  1.00 29.57     0.140 C 
ENDBRANCH  12  26
TORSDOF 2
ENDMDL
MODEL 5
REMARK VINA RESULT:    -8.582      2.800      9.856
REMARK INTER + INTRA:          -9.953
REMARK INTER:                  -9.583
REMARK INTRA:                  -0.371
REMARK UNBOUND:                -0.368
REMARK  2 active torsions:
REMARK  status: ('A' for Active; 'I' for Inactive)
REMARK    1  A    between atoms: CAX_24  and  NBD_30 
REMARK    2  A    between atoms: CAY_25  and  CAZ_26 
ROOT
HETATM    1  CAE   D T 501      -1.033  14.566  -5.651  1.00 28.11     0.002 A 
HETATM    2  CAF   D T 501       0.715  13.348  -4.523  1.00 31.06     0.002 A 
HETATM    3  CAG   D T 501      -0.644  15.732  -4.973  1.00 28.67     0.017 A 
HETATM    4  CAH   D T 501       1.086  14.505  -3.824  1.00 30.46     0.017 A 
HETATM    5  CAK   D T 501       0.108  11.040  -6.226  1.00 23.78     0.102 A 
HETATM    6  CAL   D T 501      -3.577   9.232  -8.193  1.00 24.69     0.124 A 
HETATM    7  CAM   D T 501      -2.023  12.069  -6.558  1.00 24.63     0.104 A 
HETATM    8  NAS   D T 501      -0.348   9.917  -6.818  1.00 20.85    -0.225 NA
HETATM    9  NAT   D T 501      -3.779  10.513  -7.781  1.00 25.16    -0.162 NA
HETATM   10  CAV   D T 501      -0.336  13.373  -5.446  1.00 25.80     0.003 A 
HETATM   11  CAW   D T 501      -0.726  12.176  -6.099  1.00 25.02     0.038 A 
HETATM   12  CAX   D T 501       0.387  15.697  -4.039  1.00 27.25     0.056 A 
HETATM   13  CAZ   D T 501      -2.389   8.939  -7.880  1.00 24.84     0.057 A 
HETATM   14  CBC   D T 501      -1.609   9.831  -7.285  1.00 23.94     0.165 A 
HETATM   15  NBE   D T 501      -2.454  10.941  -7.150  1.00 26.21    -0.211 N 
ENDROOT
BRANCH  13  16
HETATM   16  CAY   D T 501      -1.980   7.618  -8.255  1.00 23.50     0.007 A 
HETATM   17  CAD   D T 501      -1.995   7.298  -9.582  1.00 28.61     0.021 A 
HETATM   18  CAC   D T 501      -1.643   6.031 -10.010  1.00 31.28     0.099 A 
HETATM   19  NAR   D T 501      -1.288   5.075  -9.167  1.00 29.97    -0.244 NA
HETATM   20  CBA   D T 501      -1.245   5.307  -7.854  1.00 29.39     0.081 A 
HETATM   21  CAI   D T 501      -0.867   4.286  -6.965  1.00 24.64     0.019 A 
HETATM   22  CBB   D T 501      -1.613   6.597  -7.335  1.00 25.45     0.018 A 
HETATM   23  CAA   D T 501      -0.854   4.521  -5.616  1.00 25.05     0.002 A 
HETATM   24  CAB   D T 501      -1.199   5.748  -5.104  1.00 24.88     0.000 A 
HETATM   25  CAJ   D T 501      -1.588   6.781  -5.947  1.00 27.86     0.002 A 
ENDBRANCH  13  16
BRANCH  12  26
HETATM   26  NBD   D T 501       0.770  16.937  -3.302  1.00 33.43    -0.344 N 
HETATM   27  CAP   D T 501       0.107  18.176  -3.716  1.00 26.51     0.140 C 
HETATM   28  CAN   D T 501       1.009  18.809  -4.827  1.00 28.69     0.314 C 
HETATM   29  NAU   D T 501       2.362  18.914  -4.402  1.00 26.40     0.343 N 
HETATM   30  CAO   D T 501       2.960  17.659  -4.026  1.00 27.47     0.314 C 
HETATM   31  CAQ   D T 501       2.150  17.032  -2.878  1.00 29.57     0.140 C 
ENDBRANCH  12  26
TORSDOF 2
ENDMDL
MODEL 6
REMARK VINA RESULT:    -8.544      1.903     10.149
REMARK INTER + INTRA:          -9.911
REMARK INTER:                  -9.389
REMARK INTRA:                  -0.522
REMARK UNBOUND:                -0.368
REMARK  2 active torsions:
REMARK  status: ('A' for Active; 'I' for Inactive)
REMARK    1  A    between atoms: CAX_24  and  NBD_30 
REMARK    2  A    between atoms: CAY_25  and  CAZ_26 
ROOT
HETATM    1  CAE   D T 501      -2.124  16.020  -6.071  1.00 28.11     0.002 A 
HETATM    2  CAF   D T 501      -2.430  15.027  -3.896  1.00 31.06     0.002 A 
HETATM    3  CAG   D T 501      -2.745  17.193  -5.611  1.00 28.67     0.017 A 
HETATM    4  CAH   D T 501      -3.077  16.185  -3.444  1.00 30.46     0.017 A 
HETATM    5  CAK   D T 501      -0.808  12.752  -4.785  1.00 23.78     0.102 A 
HETATM    6  CAL   D T 501      -0.070  10.508  -8.675  1.00 24.69     0.124 A 
HETATM    7  CAM   D T 501      -1.356  13.456  -7.002  1.00 24.63     0.104 A 
HETATM    8  NAS   D T 501      -0.295  11.607  -5.280  1.00 20.85    -0.225 NA
HETATM    9  NAT   D T 501      -0.663  11.717  -8.873  1.00 25.16    -0.162 NA
HETATM   10  CAV   D T 501      -1.941  14.940  -5.203  1.00 25.80     0.003 A 
HETATM   11  CAW   D T 501      -1.340  13.736  -5.651  1.00 25.02     0.038 A 
HETATM   12  CAX   D T 501      -3.250  17.266  -4.316  1.00 27.25     0.056 A 
HETATM   13  CAZ   D T 501       0.085  10.386  -7.428  1.00 24.84     0.057 A 
HETATM   14  CBC   D T 501      -0.292  11.353  -6.603  1.00 23.94     0.165 A 
HETATM   15  NBE   D T 501      -0.834  12.309  -7.473  1.00 26.21    -0.211 N 
ENDROOT
BRANCH  13  16
HETATM   16  CAY   D T 501       0.720   9.168  -7.021  1.00 23.50     0.007 A 
HETATM   17  CAD   D T 501       2.085   9.123  -7.035  1.00 28.61     0.021 A 
HETATM   18  CAC   D T 501       2.761   7.970  -6.685  1.00 31.28     0.099 A 
HETATM   19  NAR   D T 501       2.129   6.862  -6.333  1.00 29.97    -0.244 NA
HETATM   20  CBA   D T 501       0.796   6.822  -6.290  1.00 29.39     0.081 A 
HETATM   21  CAI   D T 501       0.132   5.641  -5.915  1.00 24.64     0.019 A 
HETATM   22  CBB   D T 501       0.027   7.981  -6.657  1.00 25.45     0.018 A 
HETATM   23  CAA   D T 501      -1.236   5.597  -5.902  1.00 25.05     0.002 A 
HETATM   24  CAB   D T 501      -1.986   6.696  -6.246  1.00 24.88     0.000 A 
HETATM   25  CAJ   D T 501      -1.370   7.879  -6.633  1.00 27.86     0.002 A 
ENDBRANCH  13  16
BRANCH  12  26
HETATM   26  NBD   D T 501      -3.936  18.506  -3.850  1.00 33.43    -0.344 N 
HETATM   27  CAP   D T 501      -3.694  19.721  -4.632  1.00 26.51     0.140 C 
HETATM   28  CAN   D T 501      -2.449  20.418  -3.988  1.00 28.69     0.314 C 
HETATM   29  NAU   D T 501      -2.610  20.577  -2.584  1.00 26.40     0.343 N 
HETATM   30  CAO   D T 501      -2.827  19.345  -1.873  1.00 27.47     0.314 C 
HETATM   31  CAQ   D T 501      -4.090  18.656  -2.420  1.00 29.57     0.140 C 
ENDBRANCH  12  26
TORSDOF 2
ENDMDL
MODEL 7
REMARK VINA RESULT:    -8.520      2.057     10.452
REMARK INTER + INTRA:          -9.884
REMARK INTER:                 -10.588
REMARK INTRA:                   0.704
REMARK UNBOUND:                -0.368
REMARK  2 active torsions:
REMARK  status: ('A' for Active; 'I' for Inactive)
REMARK    1  A    between atoms: CAX_24  and  NBD_30 
REMARK    2  A    between atoms: CAY_25  and  CAZ_26 
ROOT
HETATM    1  CAE   D T 501      -1.833  13.246  -5.640  1.00 28.11     0.002 A 
HETATM    2  CAF   D T 501       0.190  13.214  -4.330  1.00 31.06     0.002 A 
HETATM    3  CAG   D T 501      -2.145  14.508  -5.107  1.00 28.67     0.017 A 
HETATM    4  CAH   D T 501      -0.135  14.460  -3.776  1.00 30.46     0.017 A 
HETATM    5  CAK   D T 501       0.978  10.766  -5.738  1.00 23.78     0.102 A 
HETATM    6  CAL   D T 501      -1.106   7.142  -7.535  1.00 24.69     0.124 A 
HETATM    7  CAM   D T 501      -1.344  10.520  -6.242  1.00 24.63     0.104 A 
HETATM    8  NAS   D T 501       1.205   9.516  -6.192  1.00 20.85    -0.225 NA
HETATM    9  NAT   D T 501      -1.963   8.171  -7.293  1.00 25.16    -0.162 NA
HETATM   10  CAV   D T 501      -0.648  12.606  -5.270  1.00 25.80     0.003 A 
HETATM   11  CAW   D T 501      -0.322  11.320  -5.774  1.00 25.02     0.038 A 
HETATM   12  CAX   D T 501      -1.320  15.098  -4.155  1.00 27.25     0.056 A 
HETATM   13  CAZ   D T 501       0.035   7.531  -7.162  1.00 24.84     0.057 A 
HETATM   14  CBC   D T 501       0.204   8.750  -6.670  1.00 23.94     0.165 A 
HETATM   15  NBE   D T 501      -1.094   9.278  -6.694  1.00 26.21    -0.211 N 
ENDROOT
BRANCH  13  16
HETATM   16  CAY   D T 501       1.086   6.577  -7.358  1.00 23.50     0.007 A 
HETATM   17  CAD   D T 501       2.304   7.043  -7.764  1.00 28.61     0.021 A 
HETATM   18  CAC   D T 501       3.352   6.174  -8.002  1.00 31.28     0.099 A 
HETATM   19  NAR   D T 501       3.229   4.864  -7.860  1.00 29.97    -0.244 NA
HETATM   20  CBA   D T 501       2.073   4.328  -7.463  1.00 29.39     0.081 A 
HETATM   21  CAI   D T 501       1.950   2.936  -7.315  1.00 24.64     0.019 A 
HETATM   22  CBB   D T 501       0.934   5.170  -7.212  1.00 25.45     0.018 A 
HETATM   23  CAA   D T 501       0.753   2.389  -6.937  1.00 25.05     0.002 A 
HETATM   24  CAB   D T 501      -0.343   3.179  -6.690  1.00 24.88     0.000 A 
HETATM   25  CAJ   D T 501      -0.268   4.558  -6.835  1.00 27.86     0.002 A 
ENDBRANCH  13  16
BRANCH  12  26
HETATM   26  NBD   D T 501      -1.680  16.425  -3.575  1.00 33.43    -0.344 N 
HETATM   27  CAP   D T 501      -3.073  16.850  -3.726  1.00 26.51     0.140 C 
HETATM   28  CAN   D T 501      -3.146  17.652  -5.068  1.00 28.69     0.314 C 
HETATM   29  NAU   D T 501      -2.154  18.669  -5.120  1.00 26.40     0.343 N 
HETATM   30  CAO   D T 501      -0.806  18.184  -4.983  1.00 27.47     0.314 C 
HETATM   31  CAQ   D T 501      -0.662  17.451  -3.638  1.00 29.57     0.140 C 
ENDBRANCH  12  26
TORSDOF 2
ENDMDL
MODEL 8
REMARK VINA RESULT:    -8.511      1.988     10.342
REMARK INTER + INTRA:          -9.873
REMARK INTER:                 -10.400
REMARK INTRA:                   0.527
REMARK UNBOUND:                -0.368
REMARK  2 active torsions:
REMARK  status: ('A' for Active; 'I' for Inactive)
REMARK    1  A    between atoms: CAX_24  and  NBD_30 
REMARK    2  A    between atoms: CAY_25  and  CAZ_26 
ROOT
HETATM    1  CAE   D T 501       0.241  13.575  -4.394  1.00 28.11     0.002 A 
HETATM    2  CAF   D T 501      -1.998  13.168  -5.188  1.00 31.06     0.002 A 
HETATM    3  CAG   D T 501      -0.158  14.849  -3.955  1.00 28.67     0.017 A 
HETATM    4  CAH   D T 501      -2.390  14.449  -4.777  1.00 30.46     0.017 A 
HETATM    5  CAK   D T 501      -1.217  10.398  -5.751  1.00 23.78     0.102 A 
HETATM    6  CAL   D T 501       2.540   8.204  -7.086  1.00 24.69     0.124 A 
HETATM    7  CAM   D T 501       1.027  11.219  -5.760  1.00 24.63     0.104 A 
HETATM    8  NAS   D T 501      -0.783   9.221  -6.247  1.00 20.85    -0.225 NA
HETATM    9  NAT   D T 501       2.800   9.464  -6.641  1.00 25.16    -0.162 NA
HETATM   10  CAV   D T 501      -0.688  12.720  -4.990  1.00 25.80     0.003 A 
HETATM   11  CAW   D T 501      -0.304  11.440  -5.466  1.00 25.02     0.038 A 
HETATM   12  CAX   D T 501      -1.456  15.298  -4.174  1.00 27.25     0.056 A 
HETATM   13  CAZ   D T 501       1.292   8.042  -6.991  1.00 24.84     0.057 A 
HETATM   14  CBC   D T 501       0.521   9.007  -6.508  1.00 23.94     0.165 A 
HETATM   15  NBE   D T 501       1.437  10.036  -6.249  1.00 26.21    -0.211 N 
ENDROOT
BRANCH  13  16
HETATM   16  CAY   D T 501       0.824   6.752  -7.401  1.00 23.50     0.007 A 
HETATM   17  CAD   D T 501      -0.381   6.683  -8.040  1.00 28.61     0.021 A 
HETATM   18  CAC   D T 501      -0.907   5.467  -8.435  1.00 31.28     0.099 A 
HETATM   19  NAR   D T 501      -0.284   4.322  -8.207  1.00 29.97    -0.244 NA
HETATM   20  CBA   D T 501       0.899   4.302  -7.591  1.00 29.39     0.081 A 
HETATM   21  CAI   D T 501       1.556   3.082  -7.353  1.00 24.64     0.019 A 
HETATM   22  CBB   D T 501       1.500   5.529  -7.139  1.00 25.45     0.018 A 
HETATM   23  CAA   D T 501       2.755   3.064  -6.694  1.00 25.05     0.002 A 
HETATM   24  CAB   D T 501       3.344   4.226  -6.258  1.00 24.88     0.000 A 
HETATM   25  CAJ   D T 501       2.725   5.452  -6.463  1.00 27.86     0.002 A 
ENDBRANCH  13  16
BRANCH  12  26
HETATM   26  NBD   D T 501      -1.859  16.665  -3.731  1.00 33.43    -0.344 N 
HETATM   27  CAP   D T 501      -3.209  17.101  -4.095  1.00 26.51     0.140 C 
HETATM   28  CAN   D T 501      -3.082  17.815  -5.482  1.00 28.69     0.314 C 
HETATM   29  NAU   D T 501      -2.068  18.812  -5.463  1.00 26.40     0.343 N 
HETATM   30  CAO   D T 501      -0.762  18.315  -5.115  1.00 27.47     0.314 C 
HETATM   31  CAQ   D T 501      -0.817  17.669  -3.720  1.00 29.57     0.140 C 
ENDBRANCH  12  26
TORSDOF 2
ENDMDL
MODEL 9
REMARK VINA RESULT:    -8.304      2.329     10.549
REMARK INTER + INTRA:          -9.642
REMARK INTER:                  -9.119
REMARK INTRA:                  -0.524
REMARK UNBOUND:                -0.368
REMARK  2 active torsions:
REMARK  status: ('A' for Active; 'I' for Inactive)
REMARK    1  A    between atoms: CAX_24  and  NBD_30 
REMARK    2  A    between atoms: CAY_25  and  CAZ_26 
ROOT
HETATM    1  CAE   D T 501      -0.661  12.954  -7.495  1.00 28.11     0.002 A 
HETATM    2  CAF   D T 501      -0.497  12.108  -5.243  1.00 31.06     0.002 A 
HETATM    3  CAG   D T 501      -1.357  14.074  -7.011  1.00 28.67     0.017 A 
HETATM    4  CAH   D T 501      -1.217  13.210  -4.764  1.00 30.46     0.017 A 
HETATM    5  CAK   D T 501       1.263   9.987  -6.245  1.00 23.78     0.102 A 
HETATM    6  CAL   D T 501       1.697   7.547 -10.062  1.00 24.69     0.124 A 
HETATM    7  CAM   D T 501       0.295  10.438  -8.382  1.00 24.63     0.104 A 
HETATM    8  NAS   D T 501       1.845   8.878  -6.747  1.00 20.85    -0.225 NA
HETATM    9  NAT   D T 501       0.923   8.654 -10.233  1.00 25.16    -0.162 NA
HETATM   10  CAV   D T 501      -0.205  11.978  -6.605  1.00 25.80     0.003 A 
HETATM   11  CAW   D T 501       0.478  10.825  -7.070  1.00 25.02     0.038 A 
HETATM   12  CAX   D T 501      -1.665  14.187  -5.659  1.00 27.25     0.056 A 
HETATM   13  CAZ   D T 501       2.055   7.545  -8.851  1.00 24.84     0.057 A 
HETATM   14  CBC   D T 501       1.681   8.521  -8.036  1.00 23.94     0.165 A 
HETATM   15  NBE   D T 501       0.889   9.331  -8.863  1.00 26.21    -0.211 N 
ENDROOT
BRANCH  13  16
HETATM   16  CAY   D T 501       2.902   6.452  -8.480  1.00 23.50     0.007 A 
HETATM   17  CAD   D T 501       4.244   6.579  -8.702  1.00 28.61     0.021 A 
HETATM   18  CAC   D T 501       5.115   5.550  -8.397  1.00 31.28     0.099 A 
HETATM   19  NAR   D T 501       4.698   4.401  -7.890  1.00 29.97    -0.244 NA
HETATM   20  CBA   D T 501       3.404   4.197  -7.639  1.00 29.39     0.081 A 
HETATM   21  CAI   D T 501       2.969   2.974  -7.100  1.00 24.64     0.019 A 
HETATM   22  CBB   D T 501       2.438   5.218  -7.946  1.00 25.45     0.018 A 
HETATM   23  CAA   D T 501       1.636   2.758  -6.873  1.00 25.05     0.002 A 
HETATM   24  CAB   D T 501       0.701   3.724  -7.157  1.00 24.88     0.000 A 
HETATM   25  CAJ   D T 501       1.087   4.942  -7.700  1.00 27.86     0.002 A 
ENDBRANCH  13  16
BRANCH  12  26
HETATM   26  NBD   D T 501      -2.433  15.367  -5.164  1.00 33.43    -0.344 N 
HETATM   27  CAP   D T 501      -2.537  16.509  -6.074  1.00 26.51     0.140 C 
HETATM   28  CAN   D T 501      -1.316  17.436  -5.761  1.00 28.69     0.314 C 
HETATM   29  NAU   D T 501      -1.227  17.727  -4.372  1.00 26.40     0.343 N 
HETATM   30  CAO   D T 501      -1.108  16.562  -3.533  1.00 27.47     0.314 C 
HETATM   31  CAQ   D T 501      -2.330  15.652  -3.749  1.00 29.57     0.140 C 
ENDBRANCH  12  26
TORSDOF 2
ENDMDL
