MODEL 1
REMARK VINA RESULT:    -8.936      0.000      0.000
REMARK INTER + INTRA:         -12.649
REMARK INTER:                 -11.548
REMARK INTRA:                  -1.101
REMARK UNBOUND:                -1.101
REMARK  10 active torsions:
REMARK  status: ('A' for Active; 'I' for Inactive)
REMARK    1  A    between atoms: C1_1  and  C21_25 
REMARK    2  A    between atoms: N1_14  and  C13_15 
REMARK    3  A    between atoms: C13_15  and  C14_16 
REMARK    4  A    between atoms: C14_16  and  C15_17 
REMARK    5  A    between atoms: C15_17  and  N2_18 
REMARK    6  A    between atoms: C1_29  and  C21_53 
REMARK    7  A    between atoms: N1_42  and  C13_43 
REMARK    8  A    between atoms: C13_43  and  C14_44 
REMARK    9  A    between atoms: C14_44  and  C15_45 
REMARK   10  A    between atoms: C15_45  and  N2_46 
ROOT
HETATM    1  C1    D T 153      -4.774  -0.325  10.802  0.85 32.23     0.073 C 
HETATM    2  C2    D T 153      -5.923  -0.913  10.270  0.85 32.23     0.004 C 
HETATM    3  C3    D T 153      -5.827  -2.165   9.713  0.85 32.23     0.008 C 
HETATM    4  C4    D T 153      -4.752  -2.977  10.028  0.85 32.23     0.045 C 
HETATM    5  C5    D T 153      -3.642  -2.460  10.711  0.85 32.23     0.066 C 
HETATM    6  C6    D T 153      -3.640  -1.096  11.070  0.85 32.23     0.022 C 
HETATM    7  S     D T 153      -4.841  -4.676   9.564  0.85 32.23    -0.084 SA
HETATM    8  C7    D T 153      -3.700  -5.437  10.637  0.85 32.23     0.045 C 
HETATM    9  C8    D T 153      -3.904  -6.789  10.954  0.85 32.23     0.008 C 
HETATM   10  C9    D T 153      -3.103  -7.415  11.890  0.85 32.23     0.001 C 
HETATM   11  C10   D T 153      -2.130  -6.679  12.549  0.85 32.23     0.002 C 
HETATM   12  C11   D T 153      -1.876  -5.373  12.156  0.85 32.23     0.018 C 
HETATM   13  C12   D T 153      -2.619  -4.704  11.154  0.85 32.23     0.066 C 
HETATM   14  N1    D T 153      -2.453  -3.262  10.820  0.85 82.40    -0.327 N 
ENDROOT
BRANCH  14  15
HETATM   15  C13   D T 153      -1.253  -2.552  11.268  0.85 82.40     0.108 C 
BRANCH  15  16
HETATM   16  C14   D T 153      -0.206  -2.428  10.154  0.85 82.40     0.060 C 
BRANCH  16  17
HETATM   17  C15   D T 153       0.116  -0.965   9.794  0.85 82.40     0.252 C 
BRANCH  17  18
HETATM   18  N2    D T 153       0.005  -0.011  10.872  0.85 82.40     0.141 N 
HETATM   19  C16   D T 153       1.331   0.181  11.384  0.85 82.40     0.285 C 
HETATM   20  C17   D T 153       1.327   1.221  12.398  0.85 82.40     0.285 C 
HETATM   21  N3    D T 153       0.005   1.764  12.544  0.85 82.40     0.143 N 
HETATM   22  C18   D T 153      -0.429   2.280  11.280  0.85 82.40     0.285 C 
HETATM   23  C20   D T 153       0.117   2.880  13.421  0.85 82.40     0.285 C 
HETATM   24  C19   D T 153      -0.462   1.218  10.292  0.85 82.40     0.285 C 
ENDBRANCH  17  18
ENDBRANCH  16  17
ENDBRANCH  15  16
ENDBRANCH  14  15
BRANCH   1  25
HETATM   25  C21   D T 153      -4.764   1.107  11.066  0.85 32.23     0.419 C 
HETATM   26  F1    D T 153      -3.600   1.592  11.381  0.85 32.23    -0.166 F 
HETATM   27  F2    D T 153      -5.511   1.467  12.048  0.85 32.23    -0.166 F 
HETATM   28  F3    D T 153      -5.166   1.865  10.085  0.85 32.23    -0.166 F 
ENDBRANCH   1  25
TORSDOF 10
ENDMDL
MODEL 2
REMARK VINA RESULT:    -8.778      3.490      5.873
REMARK INTER + INTRA:         -12.445
REMARK INTER:                 -12.063
REMARK INTRA:                  -0.382
REMARK UNBOUND:                -1.101
REMARK  10 active torsions:
REMARK  status: ('A' for Active; 'I' for Inactive)
REMARK    1  A    between atoms: C1_1  and  C21_25 
REMARK    2  A    between atoms: N1_14  and  C13_15 
REMARK    3  A    between atoms: C13_15  and  C14_16 
REMARK    4  A    between atoms: C14_16  and  C15_17 
REMARK    5  A    between atoms: C15_17  and  N2_18 
REMARK    6  A    between atoms: C1_29  and  C21_53 
REMARK    7  A    between atoms: N1_42  and  C13_43 
REMARK    8  A    between atoms: C13_43  and  C14_44 
REMARK    9  A    between atoms: C14_44  and  C15_45 
REMARK   10  A    between atoms: C15_45  and  N2_46 
ROOT
HETATM    1  C1    D T 153      -3.849  -4.991  10.347  0.85 32.23     0.073 C 
HETATM    2  C2    D T 153      -5.102  -5.168   9.762  0.85 32.23     0.004 C 
HETATM    3  C3    D T 153      -5.973  -4.106   9.730  0.85 32.23     0.008 C 
HETATM    4  C4    D T 153      -5.493  -2.819   9.890  0.85 32.23     0.045 C 
HETATM    5  C5    D T 153      -4.178  -2.595  10.323  0.85 32.23     0.066 C 
HETATM    6  C6    D T 153      -3.353  -3.707  10.592  0.85 32.23     0.022 C 
HETATM    7  S     D T 153      -6.579  -1.482   9.511  0.85 32.23    -0.084 SA
HETATM    8  C7    D T 153      -5.486  -0.158   9.218  0.85 32.23     0.045 C 
HETATM    9  C8    D T 153      -5.920   0.870   8.367  0.85 32.23     0.008 C 
HETATM   10  C9    D T 153      -5.057   1.886   8.002  0.85 32.23     0.001 C 
HETATM   11  C10   D T 153      -3.744   1.849   8.446  0.85 32.23     0.002 C 
HETATM   12  C11   D T 153      -3.358   0.883   9.364  0.85 32.23     0.018 C 
HETATM   13  C12   D T 153      -4.220  -0.140   9.825  0.85 32.23     0.066 C 
HETATM   14  N1    D T 153      -3.782  -1.264  10.698  0.85 82.40    -0.327 N 
ENDROOT
BRANCH  14  15
HETATM   15  C13   D T 153      -2.511  -1.166  11.419  0.85 82.40     0.108 C 
BRANCH  15  16
HETATM   16  C14   D T 153      -1.305  -1.229  10.471  0.85 82.40     0.060 C 
BRANCH  16  17
HETATM   17  C15   D T 153       0.043  -1.112  11.209  0.85 82.40     0.252 C 
BRANCH  17  18
HETATM   18  N2    D T 153       1.066  -2.047  10.804  0.85 82.40     0.141 N 
HETATM   19  C16   D T 153       0.394  -3.123  10.134  0.85 82.40     0.285 C 
HETATM   20  C17   D T 153       1.365  -4.053   9.586  0.85 82.40     0.285 C 
HETATM   21  N3    D T 153       2.698  -3.587   9.849  0.85 82.40     0.143 N 
HETATM   22  C18   D T 153       2.857  -2.283   9.274  0.85 82.40     0.285 C 
HETATM   23  C20   D T 153       3.580  -4.452   9.141  0.85 82.40     0.285 C 
HETATM   24  C19   D T 153       1.909  -1.358   9.866  0.85 82.40     0.285 C 
ENDBRANCH  17  18
ENDBRANCH  16  17
ENDBRANCH  15  16
ENDBRANCH  14  15
BRANCH   1  25
HETATM   25  C21   D T 153      -3.061  -6.160  10.712  0.85 32.23     0.419 C 
HETATM   26  F1    D T 153      -1.804  -5.920  10.933  0.85 32.23    -0.166 F 
HETATM   27  F2    D T 153      -3.035  -7.079   9.813  0.85 32.23    -0.166 F 
HETATM   28  F3    D T 153      -3.454  -6.794  11.782  0.85 32.23    -0.166 F 
ENDBRANCH   1  25
TORSDOF 10
ENDMDL
MODEL 3
REMARK VINA RESULT:    -8.768      3.172      5.124
REMARK INTER + INTRA:         -12.432
REMARK INTER:                 -12.337
REMARK INTRA:                  -0.095
REMARK UNBOUND:                -1.101
REMARK  10 active torsions:
REMARK  status: ('A' for Active; 'I' for Inactive)
REMARK    1  A    between atoms: C1_1  and  C21_25 
REMARK    2  A    between atoms: N1_14  and  C13_15 
REMARK    3  A    between atoms: C13_15  and  C14_16 
REMARK    4  A    between atoms: C14_16  and  C15_17 
REMARK    5  A    between atoms: C15_17  and  N2_18 
REMARK    6  A    between atoms: C1_29  and  C21_53 
REMARK    7  A    between atoms: N1_42  and  C13_43 
REMARK    8  A    between atoms: C13_43  and  C14_44 
REMARK    9  A    between atoms: C14_44  and  C15_45 
REMARK   10  A    between atoms: C15_45  and  N2_46 
ROOT
HETATM    1  C1    D T 153      -3.897  -5.024  10.393  0.85 32.23     0.073 C 
HETATM    2  C2    D T 153      -5.147  -5.186   9.795  0.85 32.23     0.004 C 
HETATM    3  C3    D T 153      -5.995  -4.108   9.735  0.85 32.23     0.008 C 
HETATM    4  C4    D T 153      -5.491  -2.827   9.881  0.85 32.23     0.045 C 
HETATM    5  C5    D T 153      -4.177  -2.623  10.327  0.85 32.23     0.066 C 
HETATM    6  C6    D T 153      -3.379  -3.747  10.625  0.85 32.23     0.022 C 
HETATM    7  S     D T 153      -6.545  -1.476   9.468  0.85 32.23    -0.084 SA
HETATM    8  C7    D T 153      -5.423  -0.179   9.168  0.85 32.23     0.045 C 
HETATM    9  C8    D T 153      -5.825   0.845   8.295  0.85 32.23     0.008 C 
HETATM   10  C9    D T 153      -4.938   1.837   7.926  0.85 32.23     0.001 C 
HETATM   11  C10   D T 153      -3.631   1.782   8.387  0.85 32.23     0.002 C 
HETATM   12  C11   D T 153      -3.276   0.823   9.325  0.85 32.23     0.018 C 
HETATM   13  C12   D T 153      -4.165  -0.176   9.791  0.85 32.23     0.066 C 
HETATM   14  N1    D T 153      -3.760  -1.295  10.687  0.85 82.40    -0.327 N 
ENDROOT
BRANCH  14  15
HETATM   15  C13   D T 153      -2.496  -1.210  11.422  0.85 82.40     0.108 C 
BRANCH  15  16
HETATM   16  C14   D T 153      -1.310  -1.719  10.590  0.85 82.40     0.060 C 
BRANCH  16  17
HETATM   17  C15   D T 153      -0.272  -0.620  10.292  0.85 82.40     0.252 C 
BRANCH  17  18
HETATM   18  N2    D T 153      -0.252   0.494  11.210  0.85 82.40     0.141 N 
HETATM   19  C16   D T 153       0.688   0.155  12.240  0.85 82.40     0.285 C 
HETATM   20  C17   D T 153       0.860   1.278  13.145  0.85 82.40     0.285 C 
HETATM   21  N3    D T 153       0.068   2.393  12.706  0.85 82.40     0.143 N 
HETATM   22  C18   D T 153       0.460   2.746  11.373  0.85 82.40     0.285 C 
HETATM   23  C20   D T 153       0.418   3.495  13.537  0.85 82.40     0.285 C 
HETATM   24  C19   D T 153       0.238   1.628  10.476  0.85 82.40     0.285 C 
ENDBRANCH  17  18
ENDBRANCH  16  17
ENDBRANCH  15  16
ENDBRANCH  14  15
BRANCH   1  25
HETATM   25  C21   D T 153      -3.138  -6.203  10.786  0.85 32.23     0.419 C 
HETATM   26  F1    D T 153      -3.005  -7.099   9.855  0.85 32.23    -0.166 F 
HETATM   27  F2    D T 153      -3.655  -6.863  11.761  0.85 32.23    -0.166 F 
HETATM   28  F3    D T 153      -1.917  -5.981  11.186  0.85 32.23    -0.166 F 
ENDBRANCH   1  25
TORSDOF 10
ENDMDL
MODEL 4
REMARK VINA RESULT:    -8.657      2.890      6.526
REMARK INTER + INTRA:         -12.288
REMARK INTER:                 -11.915
REMARK INTRA:                  -0.374
REMARK UNBOUND:                -1.101
REMARK  10 active torsions:
REMARK  status: ('A' for Active; 'I' for Inactive)
REMARK    1  A    between atoms: C1_1  and  C21_25 
REMARK    2  A    between atoms: N1_14  and  C13_15 
REMARK    3  A    between atoms: C13_15  and  C14_16 
REMARK    4  A    between atoms: C14_16  and  C15_17 
REMARK    5  A    between atoms: C15_17  and  N2_18 
REMARK    6  A    between atoms: C1_29  and  C21_53 
REMARK    7  A    between atoms: N1_42  and  C13_43 
REMARK    8  A    between atoms: C13_43  and  C14_44 
REMARK    9  A    between atoms: C14_44  and  C15_45 
REMARK   10  A    between atoms: C15_45  and  N2_46 
ROOT
HETATM    1  C1    D T 153      -5.351  -2.778   9.757  0.85 32.23     0.073 C 
HETATM    2  C2    D T 153      -6.088  -1.640   9.430  0.85 32.23     0.004 C 
HETATM    3  C3    D T 153      -5.713  -0.433   9.969  0.85 32.23     0.008 C 
HETATM    4  C4    D T 153      -4.435  -0.273  10.474  0.85 32.23     0.045 C 
HETATM    5  C5    D T 153      -3.598  -1.382  10.666  0.85 32.23     0.066 C 
HETATM    6  C6    D T 153      -4.084  -2.664  10.335  0.85 32.23     0.022 C 
HETATM    7  S     D T 153      -3.895   1.365  10.842  0.85 32.23    -0.084 SA
HETATM    8  C7    D T 153      -2.160   1.222  10.817  0.85 32.23     0.045 C 
HETATM    9  C8    D T 153      -1.414   2.369  10.506  0.85 32.23     0.008 C 
HETATM   10  C9    D T 153      -0.043   2.292  10.355  0.85 32.23     0.001 C 
HETATM   11  C10   D T 153       0.581   1.058  10.465  0.85 32.23     0.002 C 
HETATM   12  C11   D T 153      -0.154  -0.047  10.869  0.85 32.23     0.018 C 
HETATM   13  C12   D T 153      -1.549  -0.009  11.105  0.85 32.23     0.066 C 
HETATM   14  N1    D T 153      -2.373  -1.214  11.401  0.85 82.40    -0.327 N 
ENDROOT
BRANCH  14  15
HETATM   15  C13   D T 153      -1.716  -2.454  11.818  0.85 82.40     0.108 C 
BRANCH  15  16
HETATM   16  C14   D T 153      -0.998  -3.148  10.652  0.85 82.40     0.060 C 
BRANCH  16  17
HETATM   17  C15   D T 153      -0.399  -4.512  11.043  0.85 82.40     0.252 C 
BRANCH  17  18
HETATM   18  N2    D T 153      -1.328  -5.478  11.581  0.85 82.40     0.141 N 
HETATM   19  C16   D T 153      -2.294  -5.730  10.551  0.85 82.40     0.285 C 
HETATM   20  C17   D T 153      -3.201  -6.785  10.968  0.85 82.40     0.285 C 
HETATM   21  N3    D T 153      -2.826  -7.277  12.264  0.85 82.40     0.143 N 
HETATM   22  C18   D T 153      -1.476  -7.756  12.206  0.85 82.40     0.285 C 
HETATM   23  C20   D T 153      -3.647  -8.411  12.525  0.85 82.40     0.285 C 
HETATM   24  C19   D T 153      -0.580  -6.678  11.834  0.85 82.40     0.285 C 
ENDBRANCH  17  18
ENDBRANCH  16  17
ENDBRANCH  15  16
ENDBRANCH  14  15
BRANCH   1  25
HETATM   25  C21   D T 153      -5.921  -4.094   9.501  0.85 32.23     0.419 C 
HETATM   26  F1    D T 153      -5.141  -4.905   8.852  0.85 32.23    -0.166 F 
HETATM   27  F2    D T 153      -6.990  -4.075   8.786  0.85 32.23    -0.166 F 
HETATM   28  F3    D T 153      -6.275  -4.772  10.556  0.85 32.23    -0.166 F 
ENDBRANCH   1  25
TORSDOF 10
ENDMDL
MODEL 5
REMARK VINA RESULT:    -8.496      2.630      6.394
REMARK INTER + INTRA:         -12.081
REMARK INTER:                 -10.990
REMARK INTRA:                  -1.090
REMARK UNBOUND:                -1.101
REMARK  10 active torsions:
REMARK  status: ('A' for Active; 'I' for Inactive)
REMARK    1  A    between atoms: C1_1  and  C21_25 
REMARK    2  A    between atoms: N1_14  and  C13_15 
REMARK    3  A    between atoms: C13_15  and  C14_16 
REMARK    4  A    between atoms: C14_16  and  C15_17 
REMARK    5  A    between atoms: C15_17  and  N2_18 
REMARK    6  A    between atoms: C1_29  and  C21_53 
REMARK    7  A    between atoms: N1_42  and  C13_43 
REMARK    8  A    between atoms: C13_43  and  C14_44 
REMARK    9  A    between atoms: C14_44  and  C15_45 
REMARK   10  A    between atoms: C15_45  and  N2_46 
ROOT
HETATM    1  C1    D T 153      -3.916   1.278   8.968  0.85 32.23     0.073 C 
HETATM    2  C2    D T 153      -3.631   2.643   8.922  0.85 32.23     0.004 C 
HETATM    3  C3    D T 153      -2.480   3.097   9.518  0.85 32.23     0.008 C 
HETATM    4  C4    D T 153      -1.450   2.214   9.786  0.85 32.23     0.045 C 
HETATM    5  C5    D T 153      -1.650   0.830   9.685  0.85 32.23     0.066 C 
HETATM    6  C6    D T 153      -2.922   0.354   9.304  0.85 32.23     0.022 C 
HETATM    7  S     D T 153       0.116   2.888  10.235  0.85 32.23    -0.084 SA
HETATM    8  C7    D T 153       1.222   1.596   9.865  0.85 32.23     0.045 C 
HETATM    9  C8    D T 153       2.548   1.938   9.555  0.85 32.23     0.008 C 
HETATM   10  C9    D T 153       3.441   0.970   9.139  0.85 32.23     0.001 C 
HETATM   11  C10   D T 153       2.998  -0.335   8.982  0.85 32.23     0.002 C 
HETATM   12  C11   D T 153       1.716  -0.677   9.385  0.85 32.23     0.018 C 
HETATM   13  C12   D T 153       0.782   0.262   9.885  0.85 32.23     0.066 C 
HETATM   14  N1    D T 153      -0.640  -0.061  10.188  0.85 82.40    -0.327 N 
ENDROOT
BRANCH  14  15
HETATM   15  C13   D T 153      -1.048  -1.461  10.325  0.85 82.40     0.108 C 
BRANCH  15  16
HETATM   16  C14   D T 153      -1.142  -1.894  11.794  0.85 82.40     0.060 C 
BRANCH  16  17
HETATM   17  C15   D T 153      -2.220  -2.968  12.035  0.85 82.40     0.252 C 
BRANCH  17  18
HETATM   18  N2    D T 153      -3.201  -3.122  10.987  0.85 82.40     0.141 N 
HETATM   19  C16   D T 153      -3.637  -4.488  11.035  0.85 82.40     0.285 C 
HETATM   20  C17   D T 153      -4.717  -4.700  10.088  0.85 82.40     0.285 C 
HETATM   21  N3    D T 153      -5.042  -3.467   9.426  0.85 82.40     0.143 N 
HETATM   22  C18   D T 153      -5.410  -2.493  10.411  0.85 82.40     0.285 C 
HETATM   23  C20   D T 153      -6.209  -3.717   8.649  0.85 82.40     0.285 C 
HETATM   24  C19   D T 153      -4.303  -2.262  11.320  0.85 82.40     0.285 C 
ENDBRANCH  17  18
ENDBRANCH  16  17
ENDBRANCH  15  16
ENDBRANCH  14  15
BRANCH   1  25
HETATM   25  C21   D T 153      -5.267   0.822   8.671  0.85 32.23     0.419 C 
HETATM   26  F1    D T 153      -5.999   0.577   9.717  0.85 32.23    -0.166 F 
HETATM   27  F2    D T 153      -5.318  -0.280   8.009  0.85 32.23    -0.166 F 
HETATM   28  F3    D T 153      -5.995   1.636   7.960  0.85 32.23    -0.166 F 
ENDBRANCH   1  25
TORSDOF 10
ENDMDL
MODEL 6
REMARK VINA RESULT:    -8.408      2.230      3.401
REMARK INTER + INTRA:         -11.966
REMARK INTER:                 -11.212
REMARK INTRA:                  -0.754
REMARK UNBOUND:                -1.101
REMARK  10 active torsions:
REMARK  status: ('A' for Active; 'I' for Inactive)
REMARK    1  A    between atoms: C1_1  and  C21_25 
REMARK    2  A    between atoms: N1_14  and  C13_15 
REMARK    3  A    between atoms: C13_15  and  C14_16 
REMARK    4  A    between atoms: C14_16  and  C15_17 
REMARK    5  A    between atoms: C15_17  and  N2_18 
REMARK    6  A    between atoms: C1_29  and  C21_53 
REMARK    7  A    between atoms: N1_42  and  C13_43 
REMARK    8  A    between atoms: C13_43  and  C14_44 
REMARK    9  A    between atoms: C14_44  and  C15_45 
REMARK   10  A    between atoms: C15_45  and  N2_46 
ROOT
HETATM    1  C1    D T 153      -4.743  -0.352  10.841  0.85 32.23     0.073 C 
HETATM    2  C2    D T 153      -5.902  -0.924  10.317  0.85 32.23     0.004 C 
HETATM    3  C3    D T 153      -5.825  -2.173   9.750  0.85 32.23     0.008 C 
HETATM    4  C4    D T 153      -4.756  -2.999  10.049  0.85 32.23     0.045 C 
HETATM    5  C5    D T 153      -3.634  -2.498  10.724  0.85 32.23     0.066 C 
HETATM    6  C6    D T 153      -3.614  -1.137  11.092  0.85 32.23     0.022 C 
HETATM    7  S     D T 153      -4.867  -4.693   9.574  0.85 32.23    -0.084 SA
HETATM    8  C7    D T 153      -3.725  -5.474  10.630  0.85 32.23     0.045 C 
HETATM    9  C8    D T 153      -3.939  -6.826  10.940  0.85 32.23     0.008 C 
HETATM   10  C9    D T 153      -3.137  -7.467  11.863  0.85 32.23     0.001 C 
HETATM   11  C10   D T 153      -2.149  -6.745  12.518  0.85 32.23     0.002 C 
HETATM   12  C11   D T 153      -1.885  -5.440  12.131  0.85 32.23     0.018 C 
HETATM   13  C12   D T 153      -2.631  -4.756  11.141  0.85 32.23     0.066 C 
HETATM   14  N1    D T 153      -2.453  -3.314  10.816  0.85 82.40    -0.327 N 
ENDROOT
BRANCH  14  15
HETATM   15  C13   D T 153      -1.241  -2.619  11.257  0.85 82.40     0.108 C 
BRANCH  15  16
HETATM   16  C14   D T 153      -0.247  -2.406  10.108  0.85 82.40     0.060 C 
BRANCH  16  17
HETATM   17  C15   D T 153       1.094  -1.809  10.578  0.85 82.40     0.252 C 
BRANCH  17  18
HETATM   18  N2    D T 153       2.244  -2.673  10.460  0.85 82.40     0.141 N 
HETATM   19  C16   D T 153       1.998  -3.528   9.335  0.85 82.40     0.285 C 
HETATM   20  C17   D T 153       3.164  -4.352   9.070  0.85 82.40     0.285 C 
HETATM   21  N3    D T 153       4.218  -4.027   9.990  0.85 82.40     0.143 N 
HETATM   22  C18   D T 153       4.535  -2.635   9.862  0.85 82.40     0.285 C 
HETATM   23  C20   D T 153       5.370  -4.746   9.562  0.85 82.40     0.285 C 
HETATM   24  C19   D T 153       3.370  -1.828  10.175  0.85 82.40     0.285 C 
ENDBRANCH  17  18
ENDBRANCH  16  17
ENDBRANCH  15  16
ENDBRANCH  14  15
BRANCH   1  25
HETATM   25  C21   D T 153      -4.715   1.078  11.115  0.85 32.23     0.419 C 
HETATM   26  F1    D T 153      -5.429   1.449  12.135  0.85 32.23    -0.166 F 
HETATM   27  F2    D T 153      -5.164   1.807  10.156  0.85 32.23    -0.166 F 
HETATM   28  F3    D T 153      -3.537   1.584  11.353  0.85 32.23    -0.166 F 
ENDBRANCH   1  25
TORSDOF 10
ENDMDL
MODEL 7
REMARK VINA RESULT:    -8.374      2.624      4.152
REMARK INTER + INTRA:         -11.922
REMARK INTER:                 -11.085
REMARK INTRA:                  -0.837
REMARK UNBOUND:                -1.101
REMARK  10 active torsions:
REMARK  status: ('A' for Active; 'I' for Inactive)
REMARK    1  A    between atoms: C1_1  and  C21_25 
REMARK    2  A    between atoms: N1_14  and  C13_15 
REMARK    3  A    between atoms: C13_15  and  C14_16 
REMARK    4  A    between atoms: C14_16  and  C15_17 
REMARK    5  A    between atoms: C15_17  and  N2_18 
REMARK    6  A    between atoms: C1_29  and  C21_53 
REMARK    7  A    between atoms: N1_42  and  C13_43 
REMARK    8  A    between atoms: C13_43  and  C14_44 
REMARK    9  A    between atoms: C14_44  and  C15_45 
REMARK   10  A    between atoms: C15_45  and  N2_46 
ROOT
HETATM    1  C1    D T 153      -4.398   2.236   9.041  0.85 32.23     0.073 C 
HETATM    2  C2    D T 153      -5.595   1.521   9.038  0.85 32.23     0.004 C 
HETATM    3  C3    D T 153      -5.545   0.148   9.057  0.85 32.23     0.008 C 
HETATM    4  C4    D T 153      -4.391  -0.492   9.476  0.85 32.23     0.045 C 
HETATM    5  C5    D T 153      -3.199   0.225   9.650  0.85 32.23     0.066 C 
HETATM    6  C6    D T 153      -3.197   1.612   9.390  0.85 32.23     0.022 C 
HETATM    7  S     D T 153      -4.482  -2.222   9.801  0.85 32.23    -0.084 SA
HETATM    8  C7    D T 153      -3.125  -2.496  10.857  0.85 32.23     0.045 C 
HETATM    9  C8    D T 153      -3.199  -3.577  11.749  0.85 32.23     0.008 C 
HETATM   10  C9    D T 153      -2.208  -3.775  12.690  0.85 32.23     0.001 C 
HETATM   11  C10   D T 153      -1.166  -2.864  12.777  0.85 32.23     0.002 C 
HETATM   12  C11   D T 153      -1.054  -1.859  11.827  0.85 32.23     0.018 C 
HETATM   13  C12   D T 153      -2.004  -1.653  10.798  0.85 32.23     0.066 C 
HETATM   14  N1    D T 153      -1.973  -0.497   9.860  0.85 82.40    -0.327 N 
ENDROOT
BRANCH  14  15
HETATM   15  C13   D T 153      -0.747   0.294   9.728  0.85 82.40     0.108 C 
BRANCH  15  16
HETATM   16  C14   D T 153       0.348  -0.465   8.966  0.85 82.40     0.060 C 
BRANCH  16  17
HETATM   17  C15   D T 153       1.699  -0.468   9.706  0.85 82.40     0.252 C 
BRANCH  17  18
HETATM   18  N2    D T 153       2.221  -1.767  10.060  0.85 82.40     0.141 N 
HETATM   19  C16   D T 153       1.377  -2.734   9.418  0.85 82.40     0.285 C 
HETATM   20  C17   D T 153       1.905  -4.071   9.624  0.85 82.40     0.285 C 
HETATM   21  N3    D T 153       3.130  -4.009  10.372  0.85 82.40     0.143 N 
HETATM   22  C18   D T 153       4.068  -3.192   9.659  0.85 82.40     0.285 C 
HETATM   23  C20   D T 153       3.667  -5.327  10.385  0.85 82.40     0.285 C 
HETATM   24  C19   D T 153       3.543  -1.849   9.504  0.85 82.40     0.285 C 
ENDBRANCH  17  18
ENDBRANCH  16  17
ENDBRANCH  15  16
ENDBRANCH  14  15
BRANCH   1  25
HETATM   25  C21   D T 153      -4.408   3.643   8.667  0.85 32.23     0.419 C 
HETATM   26  F1    D T 153      -3.234   4.153   8.440  0.85 32.23    -0.166 F 
HETATM   27  F2    D T 153      -4.902   4.423   9.562  0.85 32.23    -0.166 F 
HETATM   28  F3    D T 153      -5.092   3.938   7.597  0.85 32.23    -0.166 F 
ENDBRANCH   1  25
TORSDOF 10
ENDMDL
MODEL 8
REMARK VINA RESULT:    -8.127      2.474      6.535
REMARK INTER + INTRA:         -11.603
REMARK INTER:                 -10.980
REMARK INTRA:                  -0.623
REMARK UNBOUND:                -1.101
REMARK  10 active torsions:
REMARK  status: ('A' for Active; 'I' for Inactive)
REMARK    1  A    between atoms: C1_1  and  C21_25 
REMARK    2  A    between atoms: N1_14  and  C13_15 
REMARK    3  A    between atoms: C13_15  and  C14_16 
REMARK    4  A    between atoms: C14_16  and  C15_17 
REMARK    5  A    between atoms: C15_17  and  N2_18 
REMARK    6  A    between atoms: C1_29  and  C21_53 
REMARK    7  A    between atoms: N1_42  and  C13_43 
REMARK    8  A    between atoms: C13_43  and  C14_44 
REMARK    9  A    between atoms: C14_44  and  C15_45 
REMARK   10  A    between atoms: C15_45  and  N2_46 
ROOT
HETATM    1  C1    D T 153      -4.623   0.123   9.720  0.85 32.23     0.073 C 
HETATM    2  C2    D T 153      -4.603   1.484  10.026  0.85 32.23     0.004 C 
HETATM    3  C3    D T 153      -3.605   1.963  10.841  0.85 32.23     0.008 C 
HETATM    4  C4    D T 153      -2.447   1.226  11.015  0.85 32.23     0.045 C 
HETATM    5  C5    D T 153      -2.371  -0.102  10.571  0.85 32.23     0.066 C 
HETATM    6  C6    D T 153      -3.498  -0.674   9.945  0.85 32.23     0.022 C 
HETATM    7  S     D T 153      -1.075   2.021  11.786  0.85 32.23    -0.084 SA
HETATM    8  C7    D T 153       0.282   1.066  11.256  0.85 32.23     0.045 C 
HETATM    9  C8    D T 153       1.536   1.693  11.190  0.85 32.23     0.008 C 
HETATM   10  C9    D T 153       2.625   1.024  10.667  0.85 32.23     0.001 C 
HETATM   11  C10   D T 153       2.453  -0.256  10.160  0.85 32.23     0.002 C 
HETATM   12  C11   D T 153       1.234  -0.898  10.322  0.85 32.23     0.018 C 
HETATM   13  C12   D T 153       0.104  -0.284  10.914  0.85 32.23     0.066 C 
HETATM   14  N1    D T 153      -1.247  -0.908  10.967  0.85 82.40    -0.327 N 
ENDROOT
BRANCH  14  15
HETATM   15  C13   D T 153      -1.389  -2.345  10.726  0.85 82.40     0.108 C 
BRANCH  15  16
HETATM   16  C14   D T 153      -2.001  -3.075  11.930  0.85 82.40     0.060 C 
BRANCH  16  17
HETATM   17  C15   D T 153      -2.800  -4.329  11.528  0.85 82.40     0.252 C 
BRANCH  17  18
HETATM   18  N2    D T 153      -2.336  -5.578  12.084  0.85 82.40     0.141 N 
HETATM   19  C16   D T 153      -3.252  -6.587  11.638  0.85 82.40     0.285 C 
HETATM   20  C17   D T 153      -2.789  -7.899  12.056  0.85 82.40     0.285 C 
HETATM   21  N3    D T 153      -1.537  -7.783  12.751  0.85 82.40     0.143 N 
HETATM   22  C18   D T 153      -0.582  -7.155  11.886  0.85 82.40     0.285 C 
HETATM   23  C20   D T 153      -1.070  -9.110  12.975  0.85 82.40     0.285 C 
HETATM   24  C19   D T 153      -1.040  -5.829  11.517  0.85 82.40     0.285 C 
ENDBRANCH  17  18
ENDBRANCH  16  17
ENDBRANCH  15  16
ENDBRANCH  14  15
BRANCH   1  25
HETATM   25  C21   D T 153      -5.837  -0.464   9.171  0.85 32.23     0.419 C 
HETATM   26  F1    D T 153      -6.559   0.348   8.459  0.85 32.23    -0.166 F 
HETATM   27  F2    D T 153      -6.663  -0.894  10.058  0.85 32.23    -0.166 F 
HETATM   28  F3    D T 153      -5.663  -1.497   8.394  0.85 32.23    -0.166 F 
ENDBRANCH   1  25
TORSDOF 10
ENDMDL
MODEL 9
REMARK VINA RESULT:    -8.075      2.715      6.552
REMARK INTER + INTRA:         -11.537
REMARK INTER:                 -10.929
REMARK INTRA:                  -0.607
REMARK UNBOUND:                -1.101
REMARK  10 active torsions:
REMARK  status: ('A' for Active; 'I' for Inactive)
REMARK    1  A    between atoms: C1_1  and  C21_25 
REMARK    2  A    between atoms: N1_14  and  C13_15 
REMARK    3  A    between atoms: C13_15  and  C14_16 
REMARK    4  A    between atoms: C14_16  and  C15_17 
REMARK    5  A    between atoms: C15_17  and  N2_18 
REMARK    6  A    between atoms: C1_29  and  C21_53 
REMARK    7  A    between atoms: N1_42  and  C13_43 
REMARK    8  A    between atoms: C13_43  and  C14_44 
REMARK    9  A    between atoms: C14_44  and  C15_45 
REMARK   10  A    between atoms: C15_45  and  N2_46 
ROOT
HETATM    1  C1    D T 153      -3.638   0.389  10.817  0.85 32.23     0.073 C 
HETATM    2  C2    D T 153      -2.775   1.478  10.942  0.85 32.23     0.004 C 
HETATM    3  C3    D T 153      -1.485   1.255  11.357  0.85 32.23     0.008 C 
HETATM    4  C4    D T 153      -0.941  -0.014  11.258  0.85 32.23     0.045 C 
HETATM    5  C5    D T 153      -1.753  -1.120  10.970  0.85 32.23     0.066 C 
HETATM    6  C6    D T 153      -3.137  -0.915  10.784  0.85 32.23     0.022 C 
HETATM    7  S     D T 153       0.800  -0.183  11.483  0.85 32.23    -0.084 SA
HETATM    8  C7    D T 153       1.156  -1.688  10.684  0.85 32.23     0.045 C 
HETATM    9  C8    D T 153       2.450  -1.866  10.171  0.85 32.23     0.008 C 
HETATM   10  C9    D T 153       2.759  -2.987   9.425  0.85 32.23     0.001 C 
HETATM   11  C10   D T 153       1.761  -3.910   9.147  0.85 32.23     0.002 C 
HETATM   12  C11   D T 153       0.515  -3.771   9.742  0.85 32.23     0.018 C 
HETATM   13  C12   D T 153       0.167  -2.679  10.571  0.85 32.23     0.066 C 
HETATM   14  N1    D T 153      -1.205  -2.443  11.100  0.85 82.40    -0.327 N 
ENDROOT
BRANCH  14  15
HETATM   15  C13   D T 153      -2.183  -3.533  11.082  0.85 82.40     0.108 C 
BRANCH  15  16
HETATM   16  C14   D T 153      -1.880  -4.598  12.145  0.85 82.40     0.060 C 
BRANCH  16  17
HETATM   17  C15   D T 153      -2.428  -5.989  11.774  0.85 82.40     0.252 C 
BRANCH  17  18
HETATM   18  N2    D T 153      -2.052  -7.071  12.653  0.85 82.40     0.141 N 
HETATM   19  C16   D T 153      -3.075  -8.069  12.530  0.85 82.40     0.285 C 
HETATM   20  C17   D T 153      -2.712  -9.250  13.294  0.85 82.40     0.285 C 
HETATM   21  N3    D T 153      -1.423  -9.068  13.902  0.85 82.40     0.143 N 
HETATM   22  C18   D T 153      -0.457  -8.805  12.876  0.85 82.40     0.285 C 
HETATM   23  C20   D T 153      -1.067 -10.318  14.484  0.85 82.40     0.285 C 
HETATM   24  C19   D T 153      -0.812  -7.598  12.155  0.85 82.40     0.285 C 
ENDBRANCH  17  18
ENDBRANCH  16  17
ENDBRANCH  15  16
ENDBRANCH  14  15
BRANCH   1  25
HETATM   25  C21   D T 153      -5.072   0.623  10.731  0.85 32.23     0.419 C 
HETATM   26  F1    D T 153      -5.425   1.514   9.854  0.85 32.23    -0.166 F 
HETATM   27  F2    D T 153      -5.602   1.053  11.821  0.85 32.23    -0.166 F 
HETATM   28  F3    D T 153      -5.798  -0.418  10.432  0.85 32.23    -0.166 F 
ENDBRANCH   1  25
TORSDOF 10
ENDMDL
