MODEL 1
REMARK VINA RESULT:    -7.444      0.000      0.000
REMARK INTER + INTRA:          -8.590
REMARK INTER:                  -8.315
REMARK INTRA:                  -0.275
REMARK UNBOUND:                -0.275
REMARK  2 active torsions:
REMARK  status: ('A' for Active; 'I' for Inactive)
REMARK    1  A    between atoms: C5_4  and  O7_13 
REMARK    2  A    between atoms: C8_10  and  O7_13 
ROOT
HETATM    1  O7    D T 502      26.263  -3.692 -26.048  1.00 28.67    -0.304 OA
ENDROOT
BRANCH   1   2
HETATM    2  C5    D T 502      26.604  -4.993 -26.196  1.00 33.71     0.125 A 
HETATM    3  C6    D T 502      25.927  -5.944 -25.399  1.00 25.06     0.154 A 
HETATM    4  C1    D T 502      26.242  -7.245 -25.531  1.00 17.88     0.041 A 
HETATM    5  O17   D T 502      25.010  -5.563 -24.528  1.00 23.24    -0.188 OA
HETATM    6  C2    D T 502      27.186  -7.583 -26.463  1.00 31.97     0.060 A 
HETATM    7  C3    D T 502      27.865  -6.658 -27.267  1.00 21.44     0.014 A 
HETATM    8 CL14   D T 502      27.553  -9.287 -26.671  1.00 33.89    -0.082 Cl
HETATM    9  C4    D T 502      27.549  -5.360 -27.103  1.00 26.23     0.028 A 
ENDBRANCH   1   2
BRANCH   1  10
HETATM   10  C8    D T 502      25.660  -3.013 -27.108  1.00 57.24     0.111 A 
HETATM   11  C9    D T 502      25.855  -1.613 -27.176  1.00 45.39     0.081 A 
HETATM   12  C10   D T 502      25.310  -0.865 -28.188  1.00 19.78     0.025 A 
HETATM   13 CL16   D T 502      26.803  -0.787 -25.962  1.00 34.00    -0.080 Cl
HETATM   14  C11   D T 502      24.556  -1.518 -29.170  1.00 50.55     0.059 A 
HETATM   15  C12   D T 502      24.356  -2.905 -29.127  1.00 64.03     0.013 A 
HETATM   16 CL15   D T 502      23.844  -0.597 -30.438  1.00 39.89    -0.082 Cl
HETATM   17  C13   D T 502      24.920  -3.639 -28.075  1.00 34.58     0.026 A 
ENDBRANCH   1  10
TORSDOF 2
ENDMDL
MODEL 2
REMARK VINA RESULT:    -7.280      2.573      2.988
REMARK INTER + INTRA:          -8.406
REMARK INTER:                  -8.114
REMARK INTRA:                  -0.292
REMARK UNBOUND:                -0.275
REMARK  2 active torsions:
REMARK  status: ('A' for Active; 'I' for Inactive)
REMARK    1  A    between atoms: C5_4  and  O7_13 
REMARK    2  A    between atoms: C8_10  and  O7_13 
ROOT
HETATM    1  O7    D T 502      28.601  -3.496 -25.187  1.00 28.67    -0.304 OA
ENDROOT
BRANCH   1   2
HETATM    2  C5    D T 502      28.165  -4.710 -25.593  1.00 33.71     0.125 A 
HETATM    3  C6    D T 502      27.382  -5.463 -24.689  1.00 25.06     0.154 A 
HETATM    4  C1    D T 502      26.931  -6.671 -25.070  1.00 17.88     0.041 A 
HETATM    5  O17   D T 502      27.109  -4.998 -23.484  1.00 23.24    -0.188 OA
HETATM    6  C2    D T 502      27.229  -7.096 -26.338  1.00 31.97     0.060 A 
HETATM    7  C3    D T 502      27.999  -6.363 -27.251  1.00 21.44     0.014 A 
HETATM    8 CL14   D T 502      26.591  -8.648 -26.850  1.00 33.89    -0.082 Cl
HETATM    9  C4    D T 502      28.458  -5.166 -26.841  1.00 26.23     0.028 A 
ENDBRANCH   1   2
BRANCH   1  10
HETATM   10  C8    D T 502      28.649  -2.440 -26.100  1.00 57.24     0.111 A 
HETATM   11  C9    D T 502      27.495  -1.629 -26.216  1.00 45.39     0.081 A 
HETATM   12  C10   D T 502      27.456  -0.564 -27.078  1.00 19.78     0.025 A 
HETATM   13 CL16   D T 502      26.073  -1.964 -25.257  1.00 34.00    -0.080 Cl
HETATM   14  C11   D T 502      28.592  -0.282 -27.845  1.00 50.55     0.059 A 
HETATM   15  C12   D T 502      29.749  -1.067 -27.740  1.00 64.03     0.013 A 
HETATM   16 CL15   D T 502      28.559   1.037 -28.949  1.00 39.89    -0.082 Cl
HETATM   17  C13   D T 502      29.754  -2.154 -26.856  1.00 34.58     0.026 A 
ENDBRANCH   1  10
TORSDOF 2
ENDMDL
MODEL 3
REMARK VINA RESULT:    -7.279      1.274      5.856
REMARK INTER + INTRA:          -8.405
REMARK INTER:                  -8.233
REMARK INTRA:                  -0.173
REMARK UNBOUND:                -0.275
REMARK  2 active torsions:
REMARK  status: ('A' for Active; 'I' for Inactive)
REMARK    1  A    between atoms: C5_4  and  O7_13 
REMARK    2  A    between atoms: C8_10  and  O7_13 
ROOT
HETATM    1  O7    D T 502      26.321  -3.383 -26.092  1.00 28.67    -0.304 OA
ENDROOT
BRANCH   1   2
HETATM    2  C5    D T 502      25.705  -2.779 -27.135  1.00 33.71     0.125 A 
HETATM    3  C6    D T 502      25.887  -1.386 -27.288  1.00 25.06     0.154 A 
HETATM    4  C1    D T 502      25.291  -0.763 -28.319  1.00 17.88     0.041 A 
HETATM    5  O17   D T 502      26.616  -0.703 -26.424  1.00 23.24    -0.188 OA
HETATM    6  C2    D T 502      24.562  -1.525 -29.193  1.00 31.97     0.060 A 
HETATM    7  C3    D T 502      24.374  -2.907 -29.063  1.00 21.44     0.014 A 
HETATM    8 CL14   D T 502      23.833  -0.715 -30.569  1.00 33.89    -0.082 Cl
HETATM    9  C4    D T 502      24.962  -3.507 -28.012  1.00 26.23     0.028 A 
ENDBRANCH   1   2
BRANCH   1  10
HETATM   10  C8    D T 502      26.552  -4.760 -26.131  1.00 57.24     0.111 A 
HETATM   11  C9    D T 502      27.655  -5.211 -26.893  1.00 45.39     0.081 A 
HETATM   12  C10   D T 502      27.966  -6.544 -26.979  1.00 19.78     0.025 A 
HETATM   13 CL16   D T 502      28.664  -4.075 -27.757  1.00 34.00    -0.080 Cl
HETATM   14  C11   D T 502      27.169  -7.462 -26.285  1.00 50.55     0.059 A 
HETATM   15  C12   D T 502      26.076  -7.036 -25.517  1.00 64.03     0.013 A 
HETATM   16 CL15   D T 502      27.525  -9.141 -26.395  1.00 39.89    -0.082 Cl
HETATM   17  C13   D T 502      25.781  -5.667 -25.457  1.00 34.58     0.026 A 
ENDBRANCH   1  10
TORSDOF 2
ENDMDL
MODEL 4
REMARK VINA RESULT:    -7.180      2.104      6.012
REMARK INTER + INTRA:          -8.294
REMARK INTER:                  -7.788
REMARK INTRA:                  -0.506
REMARK UNBOUND:                -0.275
REMARK  2 active torsions:
REMARK  status: ('A' for Active; 'I' for Inactive)
REMARK    1  A    between atoms: C5_4  and  O7_13 
REMARK    2  A    between atoms: C8_10  and  O7_13 
ROOT
HETATM    1  O7    D T 502      27.702  -3.229 -25.635  1.00 28.67    -0.304 OA
ENDROOT
BRANCH   1   2
HETATM    2  C5    D T 502      27.436  -2.318 -26.599  1.00 33.71     0.125 A 
HETATM    3  C6    D T 502      28.529  -1.629 -27.171  1.00 25.06     0.154 A 
HETATM    4  C1    D T 502      28.293  -0.723 -28.136  1.00 17.88     0.041 A 
HETATM    5  O17   D T 502      29.762  -1.857 -26.755  1.00 23.24    -0.188 OA
HETATM    6  C2    D T 502      26.997  -0.541 -28.540  1.00 31.97     0.060 A 
HETATM    7  C3    D T 502      25.900  -1.217 -27.990  1.00 21.44     0.014 A 
HETATM    8 CL14   D T 502      26.700   0.602 -29.838  1.00 33.89    -0.082 Cl
HETATM    9  C4    D T 502      26.157  -2.104 -27.011  1.00 26.23     0.028 A 
ENDBRANCH   1   2
BRANCH   1  10
HETATM   10  C8    D T 502      27.470  -4.583 -25.883  1.00 57.24     0.111 A 
HETATM   11  C9    D T 502      26.689  -5.291 -24.939  1.00 45.39     0.081 A 
HETATM   12  C10   D T 502      26.400  -6.621 -25.106  1.00 19.78     0.025 A 
HETATM   13 CL16   D T 502      26.063  -4.486 -23.520  1.00 34.00    -0.080 Cl
HETATM   14  C11   D T 502      26.890  -7.274 -26.243  1.00 50.55     0.059 A 
HETATM   15  C12   D T 502      27.659  -6.590 -27.195  1.00 64.03     0.013 A 
HETATM   16 CL15   D T 502      26.559  -8.948 -26.463  1.00 39.89    -0.082 Cl
HETATM   17  C13   D T 502      27.943  -5.233 -26.991  1.00 34.58     0.026 A 
ENDBRANCH   1  10
TORSDOF 2
ENDMDL
MODEL 5
REMARK VINA RESULT:    -7.149      2.212      2.657
REMARK INTER + INTRA:          -8.260
REMARK INTER:                  -8.016
REMARK INTRA:                  -0.244
REMARK UNBOUND:                -0.275
REMARK  2 active torsions:
REMARK  status: ('A' for Active; 'I' for Inactive)
REMARK    1  A    between atoms: C5_4  and  O7_13 
REMARK    2  A    between atoms: C8_10  and  O7_13 
ROOT
HETATM    1  O7    D T 502      26.918  -4.502 -26.891  1.00 28.67    -0.304 OA
ENDROOT
BRANCH   1   2
HETATM    2  C5    D T 502      26.399  -4.945 -25.723  1.00 33.71     0.125 A 
HETATM    3  C6    D T 502      26.587  -4.144 -24.574  1.00 25.06     0.154 A 
HETATM    4  C1    D T 502      26.075  -4.558 -23.401  1.00 17.88     0.041 A 
HETATM    5  O17   D T 502      27.268  -3.014 -24.644  1.00 23.24    -0.188 OA
HETATM    6  C2    D T 502      25.363  -5.728 -23.392  1.00 31.97     0.060 A 
HETATM    7  C3    D T 502      25.160  -6.534 -24.519  1.00 21.44     0.014 A 
HETATM    8 CL14   D T 502      24.650  -6.236 -21.871  1.00 33.89    -0.082 Cl
HETATM    9  C4    D T 502      25.699  -6.111 -25.677  1.00 26.23     0.028 A 
ENDBRANCH   1   2
BRANCH   1  10
HETATM   10  C8    D T 502      26.136  -3.714 -27.738  1.00 57.24     0.111 A 
HETATM   11  C9    D T 502      26.678  -2.475 -28.155  1.00 45.39     0.081 A 
HETATM   12  C10   D T 502      25.987  -1.641 -28.996  1.00 19.78     0.025 A 
HETATM   13 CL16   D T 502      28.256  -1.964 -27.605  1.00 34.00    -0.080 Cl
HETATM   14  C11   D T 502      24.725  -2.043 -29.448  1.00 50.55     0.059 A 
HETATM   15  C12   D T 502      24.172  -3.270 -29.054  1.00 64.03     0.013 A 
HETATM   16 CL15   D T 502      23.830  -1.004 -30.486  1.00 39.89    -0.082 Cl
HETATM   17  C13   D T 502      24.901  -4.096 -28.188  1.00 34.58     0.026 A 
ENDBRANCH   1  10
TORSDOF 2
ENDMDL
MODEL 6
REMARK VINA RESULT:    -7.121      1.856      2.142
REMARK INTER + INTRA:          -8.229
REMARK INTER:                  -7.745
REMARK INTRA:                  -0.484
REMARK UNBOUND:                -0.275
REMARK  2 active torsions:
REMARK  status: ('A' for Active; 'I' for Inactive)
REMARK    1  A    between atoms: C5_4  and  O7_13 
REMARK    2  A    between atoms: C8_10  and  O7_13 
ROOT
HETATM    1  O7    D T 502      27.687  -3.070 -25.645  1.00 28.67    -0.304 OA
ENDROOT
BRANCH   1   2
HETATM    2  C5    D T 502      27.501  -4.391 -25.873  1.00 33.71     0.125 A 
HETATM    3  C6    D T 502      26.642  -5.093 -24.997  1.00 25.06     0.154 A 
HETATM    4  C1    D T 502      26.434  -6.405 -25.205  1.00 17.88     0.041 A 
HETATM    5  O17   D T 502      26.064  -4.477 -23.981  1.00 23.24    -0.188 OA
HETATM    6  C2    D T 502      27.044  -6.987 -26.284  1.00 31.97     0.060 A 
HETATM    7  C3    D T 502      27.894  -6.308 -27.167  1.00 21.44     0.014 A 
HETATM    8 CL14   D T 502      26.725  -8.687 -26.583  1.00 33.89    -0.082 Cl
HETATM    9  C4    D T 502      28.105  -5.001 -26.928  1.00 26.23     0.028 A 
ENDBRANCH   1   2
BRANCH   1  10
HETATM   10  C8    D T 502      27.431  -2.152 -26.665  1.00 57.24     0.111 A 
HETATM   11  C9    D T 502      28.548  -1.559 -27.300  1.00 45.39     0.081 A 
HETATM   12  C10   D T 502      28.393  -0.655 -28.319  1.00 19.78     0.025 A 
HETATM   13 CL16   D T 502      30.173  -1.963 -26.800  1.00 34.00    -0.080 Cl
HETATM   14  C11   D T 502      27.096  -0.330 -28.733  1.00 50.55     0.059 A 
HETATM   15  C12   D T 502      25.975  -0.912 -28.124  1.00 64.03     0.013 A 
HETATM   16 CL15   D T 502      26.876   0.817 -29.996  1.00 39.89    -0.082 Cl
HETATM   17  C13   D T 502      26.168  -1.826 -27.080  1.00 34.58     0.026 A 
ENDBRANCH   1  10
TORSDOF 2
ENDMDL
MODEL 7
REMARK VINA RESULT:    -7.114      1.565      2.097
REMARK INTER + INTRA:          -8.221
REMARK INTER:                  -8.212
REMARK INTRA:                  -0.009
REMARK UNBOUND:                -0.275
REMARK  2 active torsions:
REMARK  status: ('A' for Active; 'I' for Inactive)
REMARK    1  A    between atoms: C5_4  and  O7_13 
REMARK    2  A    between atoms: C8_10  and  O7_13 
ROOT
HETATM    1  O7    D T 502      25.930  -3.855 -25.740  1.00 28.67    -0.304 OA
ENDROOT
BRANCH   1   2
HETATM    2  C5    D T 502      26.354  -5.115 -25.986  1.00 33.71     0.125 A 
HETATM    3  C6    D T 502      25.695  -6.172 -25.318  1.00 25.06     0.154 A 
HETATM    4  C1    D T 502      26.093  -7.436 -25.549  1.00 17.88     0.041 A 
HETATM    5  O17   D T 502      24.714  -5.925 -24.469  1.00 23.24    -0.188 OA
HETATM    6  C2    D T 502      27.102  -7.634 -26.454  1.00 31.97     0.060 A 
HETATM    7  C3    D T 502      27.765  -6.601 -27.130  1.00 21.44     0.014 A 
HETATM    8 CL14   D T 502      27.580  -9.288 -26.793  1.00 33.89    -0.082 Cl
HETATM    9  C4    D T 502      27.365  -5.344 -26.867  1.00 26.23     0.028 A 
ENDBRANCH   1   2
BRANCH   1  10
HETATM   10  C8    D T 502      26.278  -2.826 -26.619  1.00 57.24     0.111 A 
HETATM   11  C9    D T 502      25.625  -2.796 -27.874  1.00 45.39     0.081 A 
HETATM   12  C10   D T 502      25.894  -1.817 -28.795  1.00 19.78     0.025 A 
HETATM   13 CL16   D T 502      24.445  -4.016 -28.292  1.00 34.00    -0.080 Cl
HETATM   14  C11   D T 502      26.831  -0.831 -28.467  1.00 50.55     0.059 A 
HETATM   15  C12   D T 502      27.485  -0.836 -27.227  1.00 64.03     0.013 A 
HETATM   16 CL15   D T 502      27.202   0.396 -29.615  1.00 39.89    -0.082 Cl
HETATM   17  C13   D T 502      27.192  -1.856 -26.311  1.00 34.58     0.026 A 
ENDBRANCH   1  10
TORSDOF 2
ENDMDL
MODEL 8
REMARK VINA RESULT:    -7.068      2.279      5.689
REMARK INTER + INTRA:          -8.170
REMARK INTER:                  -7.987
REMARK INTRA:                  -0.183
REMARK UNBOUND:                -0.275
REMARK  2 active torsions:
REMARK  status: ('A' for Active; 'I' for Inactive)
REMARK    1  A    between atoms: C5_4  and  O7_13 
REMARK    2  A    between atoms: C8_10  and  O7_13 
ROOT
HETATM    1  O7    D T 502      26.891  -4.517 -27.015  1.00 28.67    -0.304 OA
ENDROOT
BRANCH   1   2
HETATM    2  C5    D T 502      26.150  -3.719 -27.818  1.00 33.71     0.125 A 
HETATM    3  C6    D T 502      26.730  -2.507 -28.254  1.00 25.06     0.154 A 
HETATM    4  C1    D T 502      26.018  -1.698 -29.059  1.00 17.88     0.041 A 
HETATM    5  O17   D T 502      27.945  -2.162 -27.867  1.00 23.24    -0.188 OA
HETATM    6  C2    D T 502      24.771  -2.115 -29.443  1.00 31.97     0.060 A 
HETATM    7  C3    D T 502      24.180  -3.315 -29.027  1.00 21.44     0.014 A 
HETATM    8 CL14   D T 502      23.868  -1.082 -30.539  1.00 33.89    -0.082 Cl
HETATM    9  C4    D T 502      24.902  -4.098 -28.205  1.00 26.23     0.028 A 
ENDBRANCH   1   2
BRANCH   1  10
HETATM   10  C8    D T 502      26.362  -4.951 -25.797  1.00 57.24     0.111 A 
HETATM   11  C9    D T 502      26.765  -4.258 -24.631  1.00 45.39     0.081 A 
HETATM   12  C10   D T 502      26.289  -4.607 -23.394  1.00 19.78     0.025 A 
HETATM   13 CL16   D T 502      27.892  -2.926 -24.733  1.00 34.00    -0.080 Cl
HETATM   14  C11   D T 502      25.380  -5.667 -23.302  1.00 50.55     0.059 A 
HETATM   15  C12   D T 502      24.960  -6.363 -24.445  1.00 64.03     0.013 A 
HETATM   16 CL15   D T 502      24.785  -6.137 -21.757  1.00 39.89    -0.082 Cl
HETATM   17  C13   D T 502      25.473  -5.986 -25.694  1.00 34.58     0.026 A 
ENDBRANCH   1  10
TORSDOF 2
ENDMDL
MODEL 9
REMARK VINA RESULT:    -7.060      2.119      5.913
REMARK INTER + INTRA:          -8.160
REMARK INTER:                  -7.627
REMARK INTRA:                  -0.533
REMARK UNBOUND:                -0.275
REMARK  2 active torsions:
REMARK  status: ('A' for Active; 'I' for Inactive)
REMARK    1  A    between atoms: C5_4  and  O7_13 
REMARK    2  A    between atoms: C8_10  and  O7_13 
ROOT
HETATM    1  O7    D T 502      25.705  -2.744 -26.395  1.00 28.67    -0.304 OA
ENDROOT
BRANCH   1   2
HETATM    2  C5    D T 502      26.348  -1.830 -27.157  1.00 33.71     0.125 A 
HETATM    3  C6    D T 502      25.695  -1.371 -28.323  1.00 25.06     0.154 A 
HETATM    4  C1    D T 502      26.309  -0.457 -29.095  1.00 17.88     0.041 A 
HETATM    5  O17   D T 502      24.508  -1.842 -28.660  1.00 23.24    -0.188 OA
HETATM    6  C2    D T 502      27.531   0.009 -28.686  1.00 31.97     0.060 A 
HETATM    7  C3    D T 502      28.193  -0.429 -27.531  1.00 21.44     0.014 A 
HETATM    8 CL14   D T 502      28.303   1.242 -29.667  1.00 33.89    -0.082 Cl
HETATM    9  C4    D T 502      27.569  -1.359 -26.786  1.00 26.23     0.028 A 
ENDBRANCH   1   2
BRANCH   1  10
HETATM   10  C8    D T 502      26.154  -4.067 -26.379  1.00 57.24     0.111 A 
HETATM   11  C9    D T 502      26.535  -4.607 -25.128  1.00 45.39     0.081 A 
HETATM   12  C10   D T 502      26.977  -5.900 -25.014  1.00 19.78     0.025 A 
HETATM   13 CL16   D T 502      26.455  -3.635 -23.677  1.00 34.00    -0.080 Cl
HETATM   14  C11   D T 502      27.037  -6.690 -26.167  1.00 50.55     0.059 A 
HETATM   15  C12   D T 502      26.657  -6.178 -27.416  1.00 64.03     0.013 A 
HETATM   16 CL15   D T 502      27.609  -8.309 -26.053  1.00 39.89    -0.082 Cl
HETATM   17  C13   D T 502      26.217  -4.850 -27.499  1.00 34.58     0.026 A 
ENDBRANCH   1  10
TORSDOF 2
ENDMDL
