MODEL 1
REMARK VINA RESULT:    -7.152      0.000      0.000
REMARK INTER + INTRA:         -11.510
REMARK INTER:                 -10.496
REMARK INTRA:                  -1.014
REMARK UNBOUND:                -1.014
REMARK  8 active torsions:
REMARK  status: ('A' for Active; 'I' for Inactive)
REMARK    1  A    between atoms: C3_5  and  N2_12 
REMARK    2  A    between atoms: N2_12  and  C10_13 
REMARK    3  A    between atoms: C10_13  and  C11_14 
REMARK    4  A    between atoms: C11_14  and  C12_15 
REMARK    5  A    between atoms: C12_15  and  C13_16 
REMARK    6  A    between atoms: C13_16  and  N3_17 
REMARK    7  A    between atoms: N3_17  and  C14_18 
REMARK    8  A    between atoms: N3_17  and  C16_20 
ROOT
HETATM    1 CL     D T1001      10.276  10.833   4.202  1.00 22.69    -0.082 Cl
HETATM    2  N1    D T1001       5.195  10.016   4.319  1.00 34.43    -0.244 NA
HETATM    3  C1    D T1001       3.921  10.231   3.931  1.00 35.26     0.101 A 
HETATM    4  C2    D T1001       3.604  11.181   2.969  1.00 34.24     0.039 A 
HETATM    5  C3    D T1001       4.636  12.012   2.351  1.00 31.96     0.079 A 
HETATM    6  C4    D T1001       6.034  11.793   2.776  1.00 33.68     0.035 A 
HETATM    7  C5    D T1001       7.197  12.514   2.261  1.00 34.90     0.004 A 
HETATM    8  C6    D T1001       8.494  12.228   2.709  1.00 32.93     0.012 A 
HETATM    9  C7    D T1001       8.679  11.198   3.687  1.00 31.88     0.059 A 
HETATM   10  C8    D T1001       7.602  10.471   4.218  1.00 32.37     0.031 A 
HETATM   11  C9    D T1001       6.279  10.751   3.777  1.00 35.42     0.084 A 
ENDROOT
BRANCH   5  12
HETATM   12  N2    D T1001       4.353  12.958   1.402  1.00 30.60    -0.273 NA
BRANCH  12  13
HETATM   13  C10   D T1001       3.942  12.731  -0.024  1.00 29.84     0.103 C 
HETATM   14  C18   D T1001       5.151  12.357  -0.870  1.00 30.59     0.026 C 
BRANCH  13  15
HETATM   15  C11   D T1001       3.199  13.969  -0.548  1.00 31.56     0.026 C 
BRANCH  15  16
HETATM   16  C12   D T1001       1.916  13.719  -1.320  1.00 32.62     0.037 C 
BRANCH  16  17
HETATM   17  C13   D T1001       0.986  12.842  -0.495  1.00 31.65     0.250 C 
BRANCH  17  18
HETATM   18  N3    D T1001      -0.269  13.541  -0.051  1.00 36.76     0.137 N 
BRANCH  18  19
HETATM   19  C14   D T1001      -1.492  13.172  -0.918  1.00 36.54     0.250 C 
HETATM   20  C15   D T1001      -2.854  13.087  -0.237  1.00 37.02     0.037 C 
ENDBRANCH  18  19
BRANCH  18  21
HETATM   21  C16   D T1001      -0.458  13.532   1.440  1.00 33.74     0.250 C 
HETATM   22  C17   D T1001       0.802  13.481   2.239  1.00 35.69     0.037 C 
ENDBRANCH  18  21
ENDBRANCH  17  18
ENDBRANCH  16  17
ENDBRANCH  15  16
ENDBRANCH  13  15
ENDBRANCH  12  13
ENDBRANCH   5  12
TORSDOF 8
ENDMDL
MODEL 2
REMARK VINA RESULT:    -6.717      3.885      6.396
REMARK INTER + INTRA:         -10.873
REMARK INTER:                  -9.437
REMARK INTRA:                  -1.435
REMARK UNBOUND:                -1.014
REMARK  8 active torsions:
REMARK  status: ('A' for Active; 'I' for Inactive)
REMARK    1  A    between atoms: C3_5  and  N2_12 
REMARK    2  A    between atoms: N2_12  and  C10_13 
REMARK    3  A    between atoms: C10_13  and  C11_14 
REMARK    4  A    between atoms: C11_14  and  C12_15 
REMARK    5  A    between atoms: C12_15  and  C13_16 
REMARK    6  A    between atoms: C13_16  and  N3_17 
REMARK    7  A    between atoms: N3_17  and  C14_18 
REMARK    8  A    between atoms: N3_17  and  C16_20 
ROOT
HETATM    1 CL     D T1001      -2.293  13.734   0.004  1.00 22.69    -0.082 Cl
HETATM    2  N1    D T1001       1.927  12.098   2.454  1.00 34.43    -0.244 NA
HETATM    3  C1    D T1001       3.258  11.930   2.601  1.00 35.26     0.101 A 
HETATM    4  C2    D T1001       4.158  12.382   1.647  1.00 34.24     0.039 A 
HETATM    5  C3    D T1001       3.704  13.037   0.421  1.00 31.96     0.079 A 
HETATM    6  C4    D T1001       2.248  13.217   0.244  1.00 33.68     0.035 A 
HETATM    7  C5    D T1001       1.610  13.862  -0.904  1.00 34.90     0.004 A 
HETATM    8  C6    D T1001       0.218  14.007  -0.982  1.00 32.93     0.012 A 
HETATM    9  C7    D T1001      -0.592  13.519   0.095  1.00 31.88     0.059 A 
HETATM   10  C8    D T1001      -0.037  12.893   1.222  1.00 32.37     0.031 A 
HETATM   11  C9    D T1001       1.374  12.735   1.316  1.00 35.42     0.084 A 
ENDROOT
BRANCH   5  12
HETATM   12  N2    D T1001       4.569  13.491  -0.539  1.00 30.60    -0.273 NA
BRANCH  12  13
HETATM   13  C10   D T1001       5.451  12.674  -1.439  1.00 29.84     0.103 C 
HETATM   14  C18   D T1001       6.865  12.611  -0.877  1.00 30.59     0.026 C 
BRANCH  13  15
HETATM   15  C11   D T1001       5.393  13.238  -2.866  1.00 31.56     0.026 C 
BRANCH  15  16
HETATM   16  C12   D T1001       4.299  14.250  -3.155  1.00 32.62     0.037 C 
BRANCH  16  17
HETATM   17  C13   D T1001       4.915  15.516  -3.732  1.00 31.65     0.250 C 
BRANCH  17  18
HETATM   18  N3    D T1001       5.039  16.635  -2.736  1.00 36.76     0.137 N 
BRANCH  18  19
HETATM   19  C14   D T1001       3.755  16.830  -1.899  1.00 36.54     0.250 C 
HETATM   20  C15   D T1001       2.537  17.435  -2.587  1.00 37.02     0.037 C 
ENDBRANCH  18  19
BRANCH  18  21
HETATM   21  C16   D T1001       6.346  16.628  -1.993  1.00 33.74     0.250 C 
HETATM   22  C17   D T1001       6.236  16.806  -0.514  1.00 35.69     0.037 C 
ENDBRANCH  18  21
ENDBRANCH  17  18
ENDBRANCH  16  17
ENDBRANCH  15  16
ENDBRANCH  13  15
ENDBRANCH  12  13
ENDBRANCH   5  12
TORSDOF 8
ENDMDL
MODEL 3
REMARK VINA RESULT:    -6.670      4.446      6.699
REMARK INTER + INTRA:         -10.803
REMARK INTER:                  -9.894
REMARK INTRA:                  -0.909
REMARK UNBOUND:                -1.014
REMARK  8 active torsions:
REMARK  status: ('A' for Active; 'I' for Inactive)
REMARK    1  A    between atoms: C3_5  and  N2_12 
REMARK    2  A    between atoms: N2_12  and  C10_13 
REMARK    3  A    between atoms: C10_13  and  C11_14 
REMARK    4  A    between atoms: C11_14  and  C12_15 
REMARK    5  A    between atoms: C12_15  and  C13_16 
REMARK    6  A    between atoms: C13_16  and  N3_17 
REMARK    7  A    between atoms: N3_17  and  C14_18 
REMARK    8  A    between atoms: N3_17  and  C16_20 
ROOT
HETATM    1 CL     D T1001      -2.229  13.814   0.719  1.00 22.69    -0.082 Cl
HETATM    2  N1    D T1001       2.437  12.254   2.230  1.00 34.43    -0.244 NA
HETATM    3  C1    D T1001       3.757  12.033   2.062  1.00 35.26     0.101 A 
HETATM    4  C2    D T1001       4.396  12.320   0.863  1.00 34.24     0.039 A 
HETATM    5  C3    D T1001       3.660  12.849  -0.284  1.00 31.96     0.079 A 
HETATM    6  C4    D T1001       2.211  13.085  -0.115  1.00 33.68     0.035 A 
HETATM    7  C5    D T1001       1.317  13.623  -1.140  1.00 34.90     0.004 A 
HETATM    8  C6    D T1001      -0.046  13.832  -0.887  1.00 32.93     0.012 A 
HETATM    9  C7    D T1001      -0.566  13.519   0.411  1.00 31.88     0.059 A 
HETATM   10  C8    D T1001       0.243  13.002   1.434  1.00 32.37     0.031 A 
HETATM   11  C9    D T1001       1.627  12.780   1.193  1.00 35.42     0.084 A 
ENDROOT
BRANCH   5  12
HETATM   12  N2    D T1001       4.263  13.139  -1.479  1.00 30.60    -0.273 NA
BRANCH  12  13
HETATM   13  C10   D T1001       4.986  14.398  -1.860  1.00 29.84     0.103 C 
HETATM   14  C18   D T1001       5.463  15.131  -0.614  1.00 30.59     0.026 C 
BRANCH  13  15
HETATM   15  C11   D T1001       4.084  15.257  -2.758  1.00 31.56     0.026 C 
BRANCH  15  16
HETATM   16  C12   D T1001       3.262  16.333  -2.070  1.00 32.62     0.037 C 
BRANCH  16  17
HETATM   17  C13   D T1001       3.702  17.704  -2.563  1.00 31.65     0.250 C 
BRANCH  17  18
HETATM   18  N3    D T1001       2.563  18.577  -3.013  1.00 36.76     0.137 N 
BRANCH  18  19
HETATM   19  C14   D T1001       2.303  19.756  -2.048  1.00 36.54     0.250 C 
HETATM   20  C15   D T1001       2.426  19.497  -0.551  1.00 37.02     0.037 C 
ENDBRANCH  18  19
BRANCH  18  21
HETATM   21  C16   D T1001       2.598  18.890  -4.482  1.00 33.74     0.250 C 
HETATM   22  C17   D T1001       3.859  18.504  -5.183  1.00 35.69     0.037 C 
ENDBRANCH  18  21
ENDBRANCH  17  18
ENDBRANCH  16  17
ENDBRANCH  15  16
ENDBRANCH  13  15
ENDBRANCH  12  13
ENDBRANCH   5  12
TORSDOF 8
ENDMDL
MODEL 4
REMARK VINA RESULT:    -6.625      3.261      4.267
REMARK INTER + INTRA:         -10.737
REMARK INTER:                 -10.079
REMARK INTRA:                  -0.658
REMARK UNBOUND:                -1.014
REMARK  8 active torsions:
REMARK  status: ('A' for Active; 'I' for Inactive)
REMARK    1  A    between atoms: C3_5  and  N2_12 
REMARK    2  A    between atoms: N2_12  and  C10_13 
REMARK    3  A    between atoms: C10_13  and  C11_14 
REMARK    4  A    between atoms: C11_14  and  C12_15 
REMARK    5  A    between atoms: C12_15  and  C13_16 
REMARK    6  A    between atoms: C13_16  and  N3_17 
REMARK    7  A    between atoms: N3_17  and  C14_18 
REMARK    8  A    between atoms: N3_17  and  C16_20 
ROOT
HETATM    1 CL     D T1001       8.616  10.303   4.778  1.00 22.69    -0.082 Cl
HETATM    2  N1    D T1001       3.766  11.037   3.219  1.00 34.43    -0.244 NA
HETATM    3  C1    D T1001       2.809  11.597   2.451  1.00 35.26     0.101 A 
HETATM    4  C2    D T1001       3.115  12.542   1.480  1.00 34.24     0.039 A 
HETATM    5  C3    D T1001       4.488  12.994   1.265  1.00 31.96     0.079 A 
HETATM    6  C4    D T1001       5.544  12.395   2.107  1.00 33.68     0.035 A 
HETATM    7  C5    D T1001       6.970  12.709   2.025  1.00 34.90     0.004 A 
HETATM    8  C6    D T1001       7.908  12.077   2.855  1.00 32.93     0.012 A 
HETATM    9  C7    D T1001       7.453  11.095   3.794  1.00 31.88     0.059 A 
HETATM   10  C8    D T1001       6.098  10.752   3.917  1.00 32.37     0.031 A 
HETATM   11  C9    D T1001       5.133  11.385   3.086  1.00 35.42     0.084 A 
ENDROOT
BRANCH   5  12
HETATM   12  N2    D T1001       4.820  13.926   0.317  1.00 30.60    -0.273 NA
BRANCH  12  13
HETATM   13  C10   D T1001       4.227  14.092  -1.053  1.00 29.84     0.103 C 
HETATM   14  C18   D T1001       4.813  13.062  -2.010  1.00 30.59     0.026 C 
BRANCH  13  15
HETATM   15  C11   D T1001       4.427  15.538  -1.527  1.00 31.56     0.026 C 
BRANCH  15  16
HETATM   16  C12   D T1001       3.266  16.180  -2.265  1.00 32.62     0.037 C 
BRANCH  16  17
HETATM   17  C13   D T1001       3.593  17.636  -2.563  1.00 31.65     0.250 C 
BRANCH  17  18
HETATM   18  N3    D T1001       2.379  18.510  -2.714  1.00 36.76     0.137 N 
BRANCH  18  19
HETATM   19  C14   D T1001       2.383  19.706  -1.737  1.00 36.54     0.250 C 
HETATM   20  C15   D T1001       2.373  19.409  -0.241  1.00 37.02     0.037 C 
ENDBRANCH  18  19
BRANCH  18  21
HETATM   21  C16   D T1001       2.029  18.798  -4.147  1.00 33.74     0.250 C 
HETATM   22  C17   D T1001       3.196  18.937  -5.069  1.00 35.69     0.037 C 
ENDBRANCH  18  21
ENDBRANCH  17  18
ENDBRANCH  16  17
ENDBRANCH  15  16
ENDBRANCH  13  15
ENDBRANCH  12  13
ENDBRANCH   5  12
TORSDOF 8
ENDMDL
MODEL 5
REMARK VINA RESULT:    -6.550      1.943      3.819
REMARK INTER + INTRA:         -10.627
REMARK INTER:                  -9.621
REMARK INTRA:                  -1.006
REMARK UNBOUND:                -1.014
REMARK  8 active torsions:
REMARK  status: ('A' for Active; 'I' for Inactive)
REMARK    1  A    between atoms: C3_5  and  N2_12 
REMARK    2  A    between atoms: N2_12  and  C10_13 
REMARK    3  A    between atoms: C10_13  and  C11_14 
REMARK    4  A    between atoms: C11_14  and  C12_15 
REMARK    5  A    between atoms: C12_15  and  C13_16 
REMARK    6  A    between atoms: C13_16  and  N3_17 
REMARK    7  A    between atoms: N3_17  and  C14_18 
REMARK    8  A    between atoms: N3_17  and  C16_20 
ROOT
HETATM    1 CL     D T1001       8.619  12.161   3.555  1.00 22.69    -0.082 Cl
HETATM    2  N1    D T1001       4.053   9.820   3.958  1.00 34.43    -0.244 NA
HETATM    3  C1    D T1001       2.760   9.616   3.633  1.00 35.26     0.101 A 
HETATM    4  C2    D T1001       2.122  10.386   2.670  1.00 34.24     0.039 A 
HETATM    5  C3    D T1001       2.816  11.473   1.982  1.00 31.96     0.079 A 
HETATM    6  C4    D T1001       4.230  11.712   2.337  1.00 33.68     0.035 A 
HETATM    7  C5    D T1001       5.088  12.738   1.745  1.00 34.90     0.004 A 
HETATM    8  C6    D T1001       6.429  12.883   2.130  1.00 32.93     0.012 A 
HETATM    9  C7    D T1001       6.967  11.996   3.118  1.00 31.88     0.059 A 
HETATM   10  C8    D T1001       6.193  10.992   3.720  1.00 32.37     0.031 A 
HETATM   11  C9    D T1001       4.830  10.833   3.344  1.00 35.42     0.084 A 
ENDROOT
BRANCH   5  12
HETATM   12  N2    D T1001       2.212  12.250   1.029  1.00 30.60    -0.273 NA
BRANCH  12  13
HETATM   13  C10   D T1001       1.645  13.630   1.196  1.00 29.84     0.103 C 
HETATM   14  C18   D T1001       0.428  13.594   2.110  1.00 30.59     0.026 C 
BRANCH  13  15
HETATM   15  C11   D T1001       1.346  14.233  -0.184  1.00 31.56     0.026 C 
BRANCH  15  16
HETATM   16  C12   D T1001       2.310  13.884  -1.304  1.00 32.62     0.037 C 
BRANCH  16  17
HETATM   17  C13   D T1001       3.601  14.671  -1.130  1.00 31.65     0.250 C 
BRANCH  17  18
HETATM   18  N3    D T1001       4.262  15.043  -2.428  1.00 36.76     0.137 N 
BRANCH  18  19
HETATM   19  C14   D T1001       4.019  16.518  -2.816  1.00 36.54     0.250 C 
HETATM   20  C15   D T1001       2.715  17.171  -2.371  1.00 37.02     0.037 C 
ENDBRANCH  18  19
BRANCH  18  21
HETATM   21  C16   D T1001       5.668  14.526  -2.549  1.00 33.74     0.250 C 
HETATM   22  C17   D T1001       5.894  13.166  -1.974  1.00 35.69     0.037 C 
ENDBRANCH  18  21
ENDBRANCH  17  18
ENDBRANCH  16  17
ENDBRANCH  15  16
ENDBRANCH  13  15
ENDBRANCH  12  13
ENDBRANCH   5  12
TORSDOF 8
ENDMDL
MODEL 6
REMARK VINA RESULT:    -6.445      3.410      8.462
REMARK INTER + INTRA:         -10.472
REMARK INTER:                  -9.744
REMARK INTRA:                  -0.728
REMARK UNBOUND:                -1.014
REMARK  8 active torsions:
REMARK  status: ('A' for Active; 'I' for Inactive)
REMARK    1  A    between atoms: C3_5  and  N2_12 
REMARK    2  A    between atoms: N2_12  and  C10_13 
REMARK    3  A    between atoms: C10_13  and  C11_14 
REMARK    4  A    between atoms: C11_14  and  C12_15 
REMARK    5  A    between atoms: C12_15  and  C13_16 
REMARK    6  A    between atoms: C13_16  and  N3_17 
REMARK    7  A    between atoms: N3_17  and  C14_18 
REMARK    8  A    between atoms: N3_17  and  C16_20 
ROOT
HETATM    1 CL     D T1001      -2.302  13.700  -0.060  1.00 22.69    -0.082 Cl
HETATM    2  N1    D T1001       2.606  13.355  -1.571  1.00 34.43    -0.244 NA
HETATM    3  C1    D T1001       3.926  13.157  -1.375  1.00 35.26     0.101 A 
HETATM    4  C2    D T1001       4.443  12.894  -0.114  1.00 34.24     0.039 A 
HETATM    5  C3    D T1001       3.582  12.846   1.067  1.00 31.96     0.079 A 
HETATM    6  C4    D T1001       2.135  13.071   0.866  1.00 33.68     0.035 A 
HETATM    7  C5    D T1001       1.122  13.046   1.920  1.00 34.90     0.004 A 
HETATM    8  C6    D T1001      -0.236  13.253   1.636  1.00 32.93     0.012 A 
HETATM    9  C7    D T1001      -0.633  13.484   0.279  1.00 31.88     0.059 A 
HETATM   10  C8    D T1001       0.293  13.519  -0.774  1.00 32.37     0.031 A 
HETATM   11  C9    D T1001       1.675  13.314  -0.503  1.00 35.42     0.084 A 
ENDROOT
BRANCH   5  12
HETATM   12  N2    D T1001       4.063  12.591   2.324  1.00 30.60    -0.273 NA
BRANCH  12  13
HETATM   13  C10   D T1001       4.819  11.379   2.788  1.00 29.84     0.103 C 
HETATM   14  C18   D T1001       4.139  10.767   4.005  1.00 30.59     0.026 C 
BRANCH  13  15
HETATM   15  C11   D T1001       6.286  11.755   3.041  1.00 31.56     0.026 C 
BRANCH  15  16
HETATM   16  C12   D T1001       7.105  10.784   3.873  1.00 32.62     0.037 C 
BRANCH  16  17
HETATM   17  C13   D T1001       7.867   9.841   2.954  1.00 31.65     0.250 C 
BRANCH  17  18
HETATM   18  N3    D T1001       9.361   9.945   3.086  1.00 36.76     0.137 N 
BRANCH  18  19
HETATM   19  C14   D T1001      10.008  10.717   1.914  1.00 36.54     0.250 C 
HETATM   20  C15   D T1001      11.419  11.260   2.107  1.00 37.02     0.037 C 
ENDBRANCH  18  19
BRANCH  18  21
HETATM   21  C16   D T1001       9.812  10.304   4.474  1.00 33.74     0.250 C 
HETATM   22  C17   D T1001      10.099   9.143   5.368  1.00 35.69     0.037 C 
ENDBRANCH  18  21
ENDBRANCH  17  18
ENDBRANCH  16  17
ENDBRANCH  15  16
ENDBRANCH  13  15
ENDBRANCH  12  13
ENDBRANCH   5  12
TORSDOF 8
ENDMDL
MODEL 7
REMARK VINA RESULT:    -6.404      3.734      5.819
REMARK INTER + INTRA:         -10.413
REMARK INTER:                  -8.996
REMARK INTRA:                  -1.417
REMARK UNBOUND:                -1.014
REMARK  8 active torsions:
REMARK  status: ('A' for Active; 'I' for Inactive)
REMARK    1  A    between atoms: C3_5  and  N2_12 
REMARK    2  A    between atoms: N2_12  and  C10_13 
REMARK    3  A    between atoms: C10_13  and  C11_14 
REMARK    4  A    between atoms: C11_14  and  C12_15 
REMARK    5  A    between atoms: C12_15  and  C13_16 
REMARK    6  A    between atoms: C13_16  and  N3_17 
REMARK    7  A    between atoms: N3_17  and  C14_18 
REMARK    8  A    between atoms: N3_17  and  C16_20 
ROOT
HETATM    1 CL     D T1001      -0.671  13.263   1.323  1.00 22.69    -0.082 Cl
HETATM    2  N1    D T1001       3.926  11.834   3.143  1.00 34.43    -0.244 NA
HETATM    3  C1    D T1001       5.262  11.662   3.068  1.00 35.26     0.101 A 
HETATM    4  C2    D T1001       5.975  11.996   1.925  1.00 34.24     0.039 A 
HETATM    5  C3    D T1001       5.307  12.523   0.737  1.00 31.96     0.079 A 
HETATM    6  C4    D T1001       3.842  12.706   0.803  1.00 33.68     0.035 A 
HETATM    7  C5    D T1001       3.006  13.234  -0.275  1.00 34.90     0.004 A 
HETATM    8  C6    D T1001       1.621  13.390  -0.118  1.00 32.93     0.012 A 
HETATM    9  C7    D T1001       1.019  13.033   1.132  1.00 31.88     0.059 A 
HETATM   10  C8    D T1001       1.770  12.522   2.202  1.00 32.37     0.031 A 
HETATM   11  C9    D T1001       3.175  12.354   2.060  1.00 35.42     0.084 A 
ENDROOT
BRANCH   5  12
HETATM   12  N2    D T1001       5.983  12.859  -0.406  1.00 30.60    -0.273 NA
BRANCH  12  13
HETATM   13  C10   D T1001       6.834  14.073  -0.645  1.00 29.84     0.103 C 
HETATM   14  C18   D T1001       6.483  15.168   0.353  1.00 30.59     0.026 C 
BRANCH  13  15
HETATM   15  C11   D T1001       6.692  14.519  -2.107  1.00 31.56     0.026 C 
BRANCH  15  16
HETATM   16  C12   D T1001       5.643  13.805  -2.940  1.00 32.62     0.037 C 
BRANCH  16  17
HETATM   17  C13   D T1001       4.480  14.748  -3.213  1.00 31.65     0.250 C 
BRANCH  17  18
HETATM   18  N3    D T1001       4.780  16.186  -2.893  1.00 36.76     0.137 N 
BRANCH  18  19
HETATM   19  C14   D T1001       4.960  17.051  -4.161  1.00 36.54     0.250 C 
HETATM   20  C15   D T1001       5.838  16.505  -5.282  1.00 37.02     0.037 C 
ENDBRANCH  18  19
BRANCH  18  21
HETATM   21  C16   D T1001       3.913  16.745  -1.801  1.00 33.74     0.250 C 
HETATM   22  C17   D T1001       2.446  16.537  -1.987  1.00 35.69     0.037 C 
ENDBRANCH  18  21
ENDBRANCH  17  18
ENDBRANCH  16  17
ENDBRANCH  15  16
ENDBRANCH  13  15
ENDBRANCH  12  13
ENDBRANCH   5  12
TORSDOF 8
ENDMDL
MODEL 8
REMARK VINA RESULT:    -6.363      2.880      4.343
REMARK INTER + INTRA:         -10.352
REMARK INTER:                  -9.316
REMARK INTRA:                  -1.036
REMARK UNBOUND:                -1.014
REMARK  8 active torsions:
REMARK  status: ('A' for Active; 'I' for Inactive)
REMARK    1  A    between atoms: C3_5  and  N2_12 
REMARK    2  A    between atoms: N2_12  and  C10_13 
REMARK    3  A    between atoms: C10_13  and  C11_14 
REMARK    4  A    between atoms: C11_14  and  C12_15 
REMARK    5  A    between atoms: C12_15  and  C13_16 
REMARK    6  A    between atoms: C13_16  and  N3_17 
REMARK    7  A    between atoms: N3_17  and  C14_18 
REMARK    8  A    between atoms: N3_17  and  C16_20 
ROOT
HETATM    1 CL     D T1001       8.956  14.447   0.643  1.00 22.69    -0.082 Cl
HETATM    2  N1    D T1001       5.594  11.573   3.274  1.00 34.43    -0.244 NA
HETATM    3  C1    D T1001       4.378  11.038   3.512  1.00 35.26     0.101 A 
HETATM    4  C2    D T1001       3.290  11.312   2.696  1.00 34.24     0.039 A 
HETATM    5  C3    D T1001       3.404  12.217   1.553  1.00 31.96     0.079 A 
HETATM    6  C4    D T1001       4.728  12.817   1.288  1.00 33.68     0.035 A 
HETATM    7  C5    D T1001       5.038  13.728   0.187  1.00 34.90     0.004 A 
HETATM    8  C6    D T1001       6.331  14.238  -0.001  1.00 32.93     0.012 A 
HETATM    9  C7    D T1001       7.369  13.844   0.904  1.00 31.88     0.059 A 
HETATM   10  C8    D T1001       7.133  12.972   1.978  1.00 32.37     0.031 A 
HETATM   11  C9    D T1001       5.826  12.449   2.185  1.00 35.42     0.084 A 
ENDROOT
BRANCH   5  12
HETATM   12  N2    D T1001       2.347  12.508   0.732  1.00 30.60    -0.273 NA
BRANCH  12  13
HETATM   13  C10   D T1001       1.511  13.755   0.720  1.00 29.84     0.103 C 
HETATM   14  C18   D T1001       0.320  13.601   1.656  1.00 30.59     0.026 C 
BRANCH  13  15
HETATM   15  C11   D T1001       1.106  14.088  -0.723  1.00 31.56     0.026 C 
BRANCH  15  16
HETATM   16  C12   D T1001       2.172  14.716  -1.604  1.00 32.62     0.037 C 
BRANCH  16  17
HETATM   17  C13   D T1001       2.177  16.223  -1.402  1.00 31.65     0.250 C 
BRANCH  17  18
HETATM   18  N3    D T1001       3.165  16.946  -2.275  1.00 36.76     0.137 N 
BRANCH  18  19
HETATM   19  C14   D T1001       2.586  18.246  -2.877  1.00 36.54     0.250 C 
HETATM   20  C15   D T1001       2.350  19.426  -1.940  1.00 37.02     0.037 C 
ENDBRANCH  18  19
BRANCH  18  21
HETATM   21  C16   D T1001       4.542  17.023  -1.676  1.00 33.74     0.250 C 
HETATM   22  C17   D T1001       5.657  17.137  -2.664  1.00 35.69     0.037 C 
ENDBRANCH  18  21
ENDBRANCH  17  18
ENDBRANCH  16  17
ENDBRANCH  15  16
ENDBRANCH  13  15
ENDBRANCH  12  13
ENDBRANCH   5  12
TORSDOF 8
ENDMDL
MODEL 9
REMARK VINA RESULT:    -6.317      3.399      7.244
REMARK INTER + INTRA:         -10.285
REMARK INTER:                  -9.256
REMARK INTRA:                  -1.029
REMARK UNBOUND:                -1.014
REMARK  8 active torsions:
REMARK  status: ('A' for Active; 'I' for Inactive)
REMARK    1  A    between atoms: C3_5  and  N2_12 
REMARK    2  A    between atoms: N2_12  and  C10_13 
REMARK    3  A    between atoms: C10_13  and  C11_14 
REMARK    4  A    between atoms: C11_14  and  C12_15 
REMARK    5  A    between atoms: C12_15  and  C13_16 
REMARK    6  A    between atoms: C13_16  and  N3_17 
REMARK    7  A    between atoms: N3_17  and  C14_18 
REMARK    8  A    between atoms: N3_17  and  C16_20 
ROOT
HETATM    1 CL     D T1001      -2.374  13.895   0.467  1.00 22.69    -0.082 Cl
HETATM    2  N1    D T1001       1.989  12.154   2.570  1.00 34.43    -0.244 NA
HETATM    3  C1    D T1001       3.313  11.895   2.581  1.00 35.26     0.101 A 
HETATM    4  C2    D T1001       4.121  12.189   1.490  1.00 34.24     0.039 A 
HETATM    5  C3    D T1001       3.568  12.766   0.267  1.00 31.96     0.079 A 
HETATM    6  C4    D T1001       2.117  13.045   0.239  1.00 33.68     0.035 A 
HETATM    7  C5    D T1001       1.391  13.633  -0.885  1.00 34.90     0.004 A 
HETATM    8  C6    D T1001       0.012  13.880  -0.819  1.00 32.93     0.012 A 
HETATM    9  C7    D T1001      -0.693  13.555   0.385  1.00 31.88     0.059 A 
HETATM   10  C8    D T1001      -0.050  12.990   1.497  1.00 32.37     0.031 A 
HETATM   11  C9    D T1001       1.347  12.729   1.445  1.00 35.42     0.084 A 
ENDROOT
BRANCH   5  12
HETATM   12  N2    D T1001       4.339  13.064  -0.825  1.00 30.60    -0.273 NA
BRANCH  12  13
HETATM   13  C10   D T1001       4.966  14.383  -1.174  1.00 29.84     0.103 C 
HETATM   14  C18   D T1001       5.490  14.358  -2.603  1.00 30.59     0.026 C 
BRANCH  13  15
HETATM   15  C11   D T1001       6.049  14.726  -0.140  1.00 31.56     0.026 C 
BRANCH  15  16
HETATM   16  C12   D T1001       7.243  13.793  -0.067  1.00 32.62     0.037 C 
BRANCH  16  17
HETATM   17  C13   D T1001       7.627  13.568   1.388  1.00 31.65     0.250 C 
BRANCH  17  18
HETATM   18  N3    D T1001       7.608  12.122   1.801  1.00 36.76     0.137 N 
BRANCH  18  19
HETATM   19  C14   D T1001       8.659  11.276   1.049  1.00 36.54     0.250 C 
HETATM   20  C15   D T1001      10.113  11.378   1.493  1.00 37.02     0.037 C 
ENDBRANCH  18  19
BRANCH  18  21
HETATM   21  C16   D T1001       7.513  11.931   3.289  1.00 33.74     0.250 C 
HETATM   22  C17   D T1001       6.899  10.641   3.724  1.00 35.69     0.037 C 
ENDBRANCH  18  21
ENDBRANCH  17  18
ENDBRANCH  16  17
ENDBRANCH  15  16
ENDBRANCH  13  15
ENDBRANCH  12  13
ENDBRANCH   5  12
TORSDOF 8
ENDMDL
