MODEL 1
REMARK VINA RESULT:   -10.437      0.000      0.000
REMARK INTER + INTRA:         -12.152
REMARK INTER:                 -12.267
REMARK INTRA:                   0.116
REMARK UNBOUND:                 0.116
REMARK  3 active torsions:
REMARK  status: ('A' for Active; 'I' for Inactive)
REMARK    1  A    between atoms: C4_6  and  C5_7 
REMARK    2  A    between atoms: C5_7  and  C6_8 
REMARK    3  A    between atoms: C5_7  and  C12_16 
ROOT
HETATM    1  C12   D T 441       4.929  14.533  -0.873  1.00 19.85     0.021 A 
HETATM    2  C13   D T 441       3.850  14.026  -0.095  1.00 19.83    -0.000 A 
HETATM    3  C14   D T 441       4.084  13.179   1.023  1.00 20.16     0.016 A 
HETATM    4  C15   D T 441       6.254  14.206  -0.489  1.00 20.41    -0.000 A 
HETATM    5  C16   D T 441       6.494  13.369   0.612  1.00 20.73     0.017 A 
HETATM    6  C17   D T 441       5.424  12.841   1.364  1.00 21.09     0.062 A 
HETATM    7  N4    D T 441       5.671  11.919   2.432  1.00 20.91    -0.294 N 
HETATM    8  C18   D T 441       7.066  11.554   2.819  1.00 20.23     0.134 C 
HETATM    9  C19   D T 441       4.592  11.345   3.139  1.00 22.47     0.261 A 
HETATM   10  O1    D T 441       4.802  10.515   4.024  1.00 22.92    -0.267 OA
HETATM   11  C20   D T 441       3.278  11.693   2.811  1.00 22.04     0.061 A 
HETATM   12  C21   D T 441       3.002  12.609   1.773  1.00 20.64     0.006 A 
HETATM   13  C22   D T 441       1.652  13.006   1.578  1.00 21.65     0.001 A 
HETATM   14  C23   D T 441       0.993  12.805   0.343  1.00 20.99     0.011 A 
HETATM   15  C24   D T 441      -0.367  13.162   0.207  1.00 22.35     0.058 A 
HETATM   16 CL2    D T 441      -1.208  12.892  -1.326  1.00 26.30    -0.082 Cl
HETATM   17  C25   D T 441      -1.072  13.719   1.291  1.00 21.98     0.011 A 
HETATM   18  C26   D T 441      -0.422  13.920   2.518  1.00 20.12     0.001 A 
HETATM   19  C27   D T 441       0.932  13.567   2.661  1.00 21.15     0.000 A 
ENDROOT
BRANCH   1  20
HETATM   20  C5    D T 441       4.700  15.214  -2.128  1.00 20.67     0.342 C 
HETATM   21  N3    D T 441       3.743  14.333  -2.829  1.00 22.80     0.629 N 
BRANCH  20  22
HETATM   22  C4    D T 441       4.012  16.484  -2.008  1.00 19.37     0.100 A 
HETATM   23  N1    D T 441       4.395  17.460  -1.208  1.00 19.33    -0.308 N 
HETATM   24  C1    D T 441       5.602  17.510  -0.341  1.00 19.43     0.132 C 
HETATM   25  C2    D T 441       3.477  18.420  -1.300  1.00 17.45     0.178 A 
HETATM   26  N2    D T 441       2.531  17.991  -2.178  1.00 18.66    -0.223 NA
HETATM   27  C3    D T 441       2.872  16.764  -2.626  1.00 16.78     0.116 A 
ENDBRANCH  20  22
BRANCH  20  28
HETATM   28  C6    D T 441       5.858  15.296  -2.968  1.00 20.70     0.021 A 
HETATM   29  C7    D T 441       6.316  14.145  -3.658  1.00 21.08    -0.001 A 
HETATM   30  C8    D T 441       7.412  14.222  -4.529  1.00 21.56     0.011 A 
HETATM   31  C9    D T 441       8.069  15.443  -4.728  1.00 22.96     0.058 A 
HETATM   32 CL1    D T 441       9.430  15.526  -5.873  1.00 26.89    -0.082 Cl
HETATM   33  C10   D T 441       7.635  16.600  -4.048  1.00 22.08     0.011 A 
HETATM   34  C11   D T 441       6.531  16.528  -3.169  1.00 21.58    -0.001 A 
ENDBRANCH  20  28
ENDBRANCH   1  20
TORSDOF 3
ENDMDL
MODEL 2
REMARK VINA RESULT:    -9.824      2.223      3.569
REMARK INTER + INTRA:         -11.431
REMARK INTER:                 -11.107
REMARK INTRA:                  -0.324
REMARK UNBOUND:                 0.116
REMARK  3 active torsions:
REMARK  status: ('A' for Active; 'I' for Inactive)
REMARK    1  A    between atoms: C4_6  and  C5_7 
REMARK    2  A    between atoms: C5_7  and  C6_8 
REMARK    3  A    between atoms: C5_7  and  C12_16 
ROOT
HETATM    1  C12   D T 441       6.042  14.604   0.149  1.00 19.85     0.021 A 
HETATM    2  C13   D T 441       4.831  14.046   0.652  1.00 19.83    -0.000 A 
HETATM    3  C14   D T 441       4.849  13.014   1.630  1.00 20.16     0.016 A 
HETATM    4  C15   D T 441       7.273  14.135   0.672  1.00 20.41    -0.000 A 
HETATM    5  C16   D T 441       7.299  13.115   1.637  1.00 20.73     0.017 A 
HETATM    6  C17   D T 441       6.101  12.541   2.112  1.00 21.09     0.062 A 
HETATM    7  N4    D T 441       6.137  11.443   3.031  1.00 20.91    -0.294 N 
HETATM    8  C18   D T 441       7.435  10.931   3.561  1.00 20.23     0.134 C 
HETATM    9  C19   D T 441       4.936  10.830   3.452  1.00 22.47     0.261 A 
HETATM   10  O1    D T 441       4.968   9.855   4.203  1.00 22.92    -0.267 OA
HETATM   11  C20   D T 441       3.707  11.310   2.989  1.00 22.04     0.061 A 
HETATM   12  C21   D T 441       3.638  12.399   2.093  1.00 20.64     0.006 A 
HETATM   13  C22   D T 441       2.354  12.907   1.763  1.00 21.65     0.001 A 
HETATM   14  C23   D T 441       1.899  12.953   0.424  1.00 20.99     0.011 A 
HETATM   15  C24   D T 441       0.594  13.413   0.142  1.00 22.35     0.058 A 
HETATM   16 CL2    D T 441       0.007  13.452  -1.527  1.00 26.30    -0.082 Cl
HETATM   17  C25   D T 441      -0.258  13.829   1.182  1.00 21.98     0.011 A 
HETATM   18  C26   D T 441       0.189  13.785   2.512  1.00 20.12     0.001 A 
HETATM   19  C27   D T 441       1.487  13.328   2.801  1.00 21.15     0.000 A 
ENDROOT
BRANCH   1  20
HETATM   20  C5    D T 441       6.046  15.494  -0.990  1.00 20.67     0.342 C 
HETATM   21  N3    D T 441       7.283  16.281  -0.809  1.00 22.80     0.629 N 
BRANCH  20  22
HETATM   22  C4    D T 441       6.215  14.834  -2.270  1.00 19.37     0.100 A 
HETATM   23  N1    D T 441       6.565  15.454  -3.380  1.00 19.33    -0.308 N 
HETATM   24  C1    D T 441       6.920  16.887  -3.553  1.00 19.43     0.132 C 
HETATM   25  C2    D T 441       6.528  14.550  -4.357  1.00 17.45     0.178 A 
HETATM   26  N2    D T 441       6.145  13.370  -3.801  1.00 18.66    -0.223 NA
HETATM   27  C3    D T 441       5.947  13.551  -2.478  1.00 16.78     0.116 A 
ENDBRANCH  20  22
BRANCH  20  28
HETATM   28  C6    D T 441       4.969  16.437  -0.999  1.00 20.70     0.021 A 
HETATM   29  C7    D T 441       5.131  17.705  -0.385  1.00 21.08    -0.001 A 
HETATM   30  C8    D T 441       4.107  18.661  -0.435  1.00 21.56     0.011 A 
HETATM   31  C9    D T 441       2.906  18.373  -1.097  1.00 22.96     0.058 A 
HETATM   32 CL1    D T 441       1.638  19.619  -1.187  1.00 26.89    -0.082 Cl
HETATM   33  C10   D T 441       2.719  17.117  -1.710  1.00 22.08     0.011 A 
HETATM   34  C11   D T 441       3.749  16.149  -1.662  1.00 21.58    -0.001 A 
ENDBRANCH  20  28
ENDBRANCH   1  20
TORSDOF 3
ENDMDL
MODEL 3
REMARK VINA RESULT:    -9.229      2.863      6.242
REMARK INTER + INTRA:         -10.732
REMARK INTER:                 -10.710
REMARK INTRA:                  -0.022
REMARK UNBOUND:                 0.116
REMARK  3 active torsions:
REMARK  status: ('A' for Active; 'I' for Inactive)
REMARK    1  A    between atoms: C4_6  and  C5_7 
REMARK    2  A    between atoms: C5_7  and  C6_8 
REMARK    3  A    between atoms: C5_7  and  C12_16 
ROOT
HETATM    1  C12   D T 441       5.824  14.340  -0.443  1.00 19.85     0.021 A 
HETATM    2  C13   D T 441       6.817  13.587   0.246  1.00 19.83    -0.000 A 
HETATM    3  C14   D T 441       6.462  12.660   1.265  1.00 20.16     0.016 A 
HETATM    4  C15   D T 441       4.462  14.122  -0.118  1.00 20.41    -0.000 A 
HETATM    5  C16   D T 441       4.102  13.211   0.888  1.00 20.73     0.017 A 
HETATM    6  C17   D T 441       5.088  12.487   1.592  1.00 21.09     0.062 A 
HETATM    7  N4    D T 441       4.721  11.625   2.675  1.00 20.91    -0.294 N 
HETATM    8  C18   D T 441       3.288  11.416   3.034  1.00 20.23     0.134 C 
HETATM    9  C19   D T 441       5.718  10.954   3.417  1.00 22.47     0.261 A 
HETATM   10  O1    D T 441       5.407  10.251   4.379  1.00 22.92    -0.267 OA
HETATM   11  C20   D T 441       7.066  11.114   3.081  1.00 22.04     0.061 A 
HETATM   12  C21   D T 441       7.458  11.947   2.011  1.00 20.64     0.006 A 
HETATM   13  C22   D T 441       8.832  11.964   1.652  1.00 21.65     0.001 A 
HETATM   14  C23   D T 441       9.584  13.162   1.664  1.00 20.99     0.011 A 
HETATM   15  C24   D T 441      10.962  13.129   1.355  1.00 22.35     0.058 A 
HETATM   16 CL2    D T 441      11.917  14.618   1.390  1.00 26.30    -0.082 Cl
HETATM   17  C25   D T 441      11.594  11.913   1.033  1.00 21.98     0.011 A 
HETATM   18  C26   D T 441      10.852  10.722   1.021  1.00 20.12     0.001 A 
HETATM   19  C27   D T 441       9.480  10.747   1.327  1.00 21.15     0.000 A 
ENDROOT
BRANCH   1  20
HETATM   20  C5    D T 441       6.179  15.430  -1.322  1.00 20.67     0.342 C 
HETATM   21  N3    D T 441       7.264  16.122  -0.595  1.00 22.80     0.629 N 
BRANCH  20  22
HETATM   22  C4    D T 441       6.780  15.023  -2.577  1.00 19.37     0.100 A 
HETATM   23  N1    D T 441       6.358  14.005  -3.302  1.00 19.33    -0.308 N 
HETATM   24  C1    D T 441       5.183  13.129  -3.051  1.00 19.43     0.132 C 
HETATM   25  C2    D T 441       7.202  13.881  -4.325  1.00 17.45     0.178 A 
HETATM   26  N2    D T 441       8.143  14.853  -4.192  1.00 18.66    -0.223 NA
HETATM   27  C3    D T 441       7.874  15.576  -3.084  1.00 16.78     0.116 A 
ENDBRANCH  20  22
BRANCH  20  28
HETATM   28  C6    D T 441       5.139  16.398  -1.503  1.00 20.70     0.021 A 
HETATM   29  C7    D T 441       5.065  17.528  -0.650  1.00 21.08    -0.001 A 
HETATM   30  C8    D T 441       4.089  18.514  -0.850  1.00 21.56     0.011 A 
HETATM   31  C9    D T 441       3.170  18.392  -1.901  1.00 22.96     0.058 A 
HETATM   32 CL1    D T 441       1.968  19.678  -2.163  1.00 26.89    -0.082 Cl
HETATM   33  C10   D T 441       3.219  17.274  -2.759  1.00 22.08     0.011 A 
HETATM   34  C11   D T 441       4.202  16.277  -2.561  1.00 21.58    -0.001 A 
ENDBRANCH  20  28
ENDBRANCH   1  20
TORSDOF 3
ENDMDL
MODEL 4
REMARK VINA RESULT:    -9.091      3.292      5.312
REMARK INTER + INTRA:         -10.570
REMARK INTER:                 -10.927
REMARK INTRA:                   0.357
REMARK UNBOUND:                 0.116
REMARK  3 active torsions:
REMARK  status: ('A' for Active; 'I' for Inactive)
REMARK    1  A    between atoms: C4_6  and  C5_7 
REMARK    2  A    between atoms: C5_7  and  C6_8 
REMARK    3  A    between atoms: C5_7  and  C12_16 
ROOT
HETATM    1  C12   D T 441       4.526  13.047  -1.305  1.00 19.85     0.021 A 
HETATM    2  C13   D T 441       3.983  12.486  -0.113  1.00 19.83    -0.000 A 
HETATM    3  C14   D T 441       2.616  12.673   0.231  1.00 20.16     0.016 A 
HETATM    4  C15   D T 441       3.664  13.770  -2.167  1.00 20.41    -0.000 A 
HETATM    5  C16   D T 441       2.313  13.962  -1.834  1.00 20.73     0.017 A 
HETATM    6  C17   D T 441       1.783  13.432  -0.639  1.00 21.09     0.062 A 
HETATM    7  N4    D T 441       0.428  13.704  -0.263  1.00 20.91    -0.294 N 
HETATM    8  C18   D T 441      -0.472  14.488  -1.159  1.00 20.23     0.134 C 
HETATM    9  C19   D T 441      -0.077  13.225   0.966  1.00 22.47     0.261 A 
HETATM   10  O1    D T 441      -1.226  13.499   1.313  1.00 22.92    -0.267 OA
HETATM   11  C20   D T 441       0.740  12.465   1.809  1.00 22.04     0.061 A 
HETATM   12  C21   D T 441       2.076  12.170   1.461  1.00 20.64     0.006 A 
HETATM   13  C22   D T 441       2.805  11.293   2.307  1.00 21.65     0.001 A 
HETATM   14  C23   D T 441       4.013  11.695   2.923  1.00 20.99     0.011 A 
HETATM   15  C24   D T 441       4.679  10.813   3.803  1.00 22.35     0.058 A 
HETATM   16 CL2    D T 441       6.179  11.315   4.597  1.00 26.30    -0.082 Cl
HETATM   17  C25   D T 441       4.152   9.536   4.071  1.00 21.98     0.011 A 
HETATM   18  C26   D T 441       2.953   9.133   3.462  1.00 20.12     0.001 A 
HETATM   19  C27   D T 441       2.284  10.005   2.585  1.00 21.15     0.000 A 
ENDROOT
BRANCH   1  20
HETATM   20  C5    D T 441       5.949  13.048  -1.558  1.00 20.67     0.342 C 
HETATM   21  N3    D T 441       6.154  11.839  -2.382  1.00 22.80     0.629 N 
BRANCH  20  22
HETATM   22  C4    D T 441       6.413  14.141  -2.388  1.00 19.37     0.100 A 
HETATM   23  N1    D T 441       6.216  15.416  -2.110  1.00 19.33    -0.308 N 
HETATM   24  C1    D T 441       5.568  15.998  -0.906  1.00 19.43     0.132 C 
HETATM   25  C2    D T 441       6.699  16.115  -3.135  1.00 17.45     0.178 A 
HETATM   26  N2    D T 441       7.190  15.224  -4.036  1.00 18.66    -0.223 NA
HETATM   27  C3    D T 441       7.009  13.974  -3.562  1.00 16.78     0.116 A 
ENDBRANCH  20  22
BRANCH  20  28
HETATM   28  C6    D T 441       6.751  12.873  -0.384  1.00 20.70     0.021 A 
HETATM   29  C7    D T 441       6.735  13.855   0.638  1.00 21.08    -0.001 A 
HETATM   30  C8    D T 441       7.470  13.672   1.819  1.00 21.56     0.011 A 
HETATM   31  C9    D T 441       8.230  12.509   2.002  1.00 22.96     0.058 A 
HETATM   32 CL1    D T 441       9.118  12.278   3.527  1.00 26.89    -0.082 Cl
HETATM   33  C10   D T 441       8.265  11.521   0.996  1.00 22.08     0.011 A 
HETATM   34  C11   D T 441       7.527  11.701  -0.195  1.00 21.58    -0.001 A 
ENDBRANCH  20  28
ENDBRANCH   1  20
TORSDOF 3
ENDMDL
MODEL 5
REMARK VINA RESULT:    -8.902      3.061      5.402
REMARK INTER + INTRA:         -10.348
REMARK INTER:                 -10.463
REMARK INTRA:                   0.115
REMARK UNBOUND:                 0.116
REMARK  3 active torsions:
REMARK  status: ('A' for Active; 'I' for Inactive)
REMARK    1  A    between atoms: C4_6  and  C5_7 
REMARK    2  A    between atoms: C5_7  and  C6_8 
REMARK    3  A    between atoms: C5_7  and  C12_16 
ROOT
HETATM    1  C12   D T 441       6.070  14.174  -2.154  1.00 19.85     0.021 A 
HETATM    2  C13   D T 441       6.780  13.581  -1.071  1.00 19.83    -0.000 A 
HETATM    3  C14   D T 441       6.092  13.028   0.044  1.00 20.16     0.016 A 
HETATM    4  C15   D T 441       4.653  14.169  -2.119  1.00 20.41    -0.000 A 
HETATM    5  C16   D T 441       3.965  13.627  -1.022  1.00 20.73     0.017 A 
HETATM    6  C17   D T 441       4.669  13.067   0.066  1.00 21.09     0.062 A 
HETATM    7  N4    D T 441       3.966  12.595   1.220  1.00 20.91    -0.294 N 
HETATM    8  C18   D T 441       2.474  12.614   1.267  1.00 20.23     0.134 C 
HETATM    9  C19   D T 441       4.679  12.096   2.332  1.00 22.47     0.261 A 
HETATM   10  O1    D T 441       4.078  11.735   3.343  1.00 22.92    -0.267 OA
HETATM   11  C20   D T 441       6.076  12.043   2.299  1.00 22.04     0.061 A 
HETATM   12  C21   D T 441       6.798  12.490   1.170  1.00 20.64     0.006 A 
HETATM   13  C22   D T 441       8.204  12.292   1.161  1.00 21.65     0.001 A 
HETATM   14  C23   D T 441       9.102  13.377   1.030  1.00 20.99     0.011 A 
HETATM   15  C24   D T 441      10.494  13.146   1.081  1.00 22.35     0.058 A 
HETATM   16 CL2    D T 441      11.626  14.500   0.942  1.00 26.30    -0.082 Cl
HETATM   17  C25   D T 441      10.997  11.844   1.260  1.00 21.98     0.011 A 
HETATM   18  C26   D T 441      10.110  10.764   1.391  1.00 20.12     0.001 A 
HETATM   19  C27   D T 441       8.723  10.986   1.340  1.00 21.15     0.000 A 
ENDROOT
BRANCH   1  20
HETATM   20  C5    D T 441       6.753  14.925  -3.182  1.00 20.67     0.342 C 
HETATM   21  N3    D T 441       6.999  13.922  -4.238  1.00 22.80     0.629 N 
BRANCH  20  22
HETATM   22  C4    D T 441       5.945  15.943  -3.824  1.00 19.37     0.100 A 
HETATM   23  N1    D T 441       5.379  16.949  -3.186  1.00 19.33    -0.308 N 
HETATM   24  C1    D T 441       5.494  17.296  -1.745  1.00 19.43     0.132 C 
HETATM   25  C2    D T 441       4.650  17.615  -4.079  1.00 17.45     0.178 A 
HETATM   26  N2    D T 441       4.793  16.978  -5.271  1.00 18.66    -0.223 NA
HETATM   27  C3    D T 441       5.614  15.919  -5.109  1.00 16.78     0.116 A 
ENDBRANCH  20  22
BRANCH  20  28
HETATM   28  C6    D T 441       8.040  15.416  -2.789  1.00 20.70     0.021 A 
HETATM   29  C7    D T 441       9.110  15.424  -3.719  1.00 21.08    -0.001 A 
HETATM   30  C8    D T 441      10.360  15.955  -3.369  1.00 21.56     0.011 A 
HETATM   31  C9    D T 441      10.565  16.488  -2.089  1.00 22.96     0.058 A 
HETATM   32 CL1    D T 441      12.145  17.197  -1.681  1.00 26.89    -0.082 Cl
HETATM   33  C10   D T 441       9.517  16.485  -1.145  1.00 22.08     0.011 A 
HETATM   34  C11   D T 441       8.255  15.951  -1.493  1.00 21.58    -0.001 A 
ENDBRANCH  20  28
ENDBRANCH   1  20
TORSDOF 3
ENDMDL
MODEL 6
REMARK VINA RESULT:    -8.631      3.196      4.993
REMARK INTER + INTRA:         -10.029
REMARK INTER:                  -9.816
REMARK INTRA:                  -0.213
REMARK UNBOUND:                 0.116
REMARK  3 active torsions:
REMARK  status: ('A' for Active; 'I' for Inactive)
REMARK    1  A    between atoms: C4_6  and  C5_7 
REMARK    2  A    between atoms: C5_7  and  C6_8 
REMARK    3  A    between atoms: C5_7  and  C12_16 
ROOT
HETATM    1  C12   D T 441       6.388  14.720  -2.697  1.00 19.85     0.021 A 
HETATM    2  C13   D T 441       5.213  15.502  -2.506  1.00 19.83    -0.000 A 
HETATM    3  C14   D T 441       4.126  15.017  -1.727  1.00 20.16     0.016 A 
HETATM    4  C15   D T 441       6.471  13.456  -2.062  1.00 20.41    -0.000 A 
HETATM    5  C16   D T 441       5.402  12.968  -1.293  1.00 20.73     0.017 A 
HETATM    6  C17   D T 441       4.225  13.729  -1.130  1.00 21.09     0.062 A 
HETATM    7  N4    D T 441       3.106  13.191  -0.417  1.00 20.91    -0.294 N 
HETATM    8  C18   D T 441       3.184  11.848   0.229  1.00 20.23     0.134 C 
HETATM    9  C19   D T 441       1.908  13.932  -0.313  1.00 22.47     0.261 A 
HETATM   10  O1    D T 441       0.929  13.450   0.257  1.00 22.92    -0.267 OA
HETATM   11  C20   D T 441       1.821  15.204  -0.887  1.00 22.04     0.061 A 
HETATM   12  C21   D T 441       2.912  15.767  -1.584  1.00 20.64     0.006 A 
HETATM   13  C22   D T 441       2.791  17.109  -2.034  1.00 21.65     0.001 A 
HETATM   14  C23   D T 441       2.916  17.444  -3.402  1.00 20.99     0.011 A 
HETATM   15  C24   D T 441       2.734  18.782  -3.817  1.00 22.35     0.058 A 
HETATM   16 CL2    D T 441       2.866  19.207  -5.530  1.00 26.30    -0.082 Cl
HETATM   17  C25   D T 441       2.430  19.786  -2.879  1.00 21.98     0.011 A 
HETATM   18  C26   D T 441       2.304  19.458  -1.521  1.00 20.12     0.001 A 
HETATM   19  C27   D T 441       2.484  18.129  -1.100  1.00 21.15     0.000 A 
ENDROOT
BRANCH   1  20
HETATM   20  C5    D T 441       7.402  15.104  -3.652  1.00 20.67     0.342 C 
HETATM   21  N3    D T 441       7.939  13.812  -4.125  1.00 22.80     0.629 N 
BRANCH  20  22
HETATM   22  C4    D T 441       6.893  15.750  -4.846  1.00 19.37     0.100 A 
HETATM   23  N1    D T 441       6.521  17.015  -4.901  1.00 19.33    -0.308 N 
HETATM   24  C1    D T 441       6.603  18.038  -3.826  1.00 19.43     0.132 C 
HETATM   25  C2    D T 441       6.029  17.221  -6.121  1.00 17.45     0.178 A 
HETATM   26  N2    D T 441       6.115  16.045  -6.796  1.00 18.66    -0.223 NA
HETATM   27  C3    D T 441       6.662  15.113  -5.987  1.00 16.78     0.116 A 
ENDBRANCH  20  22
BRANCH  20  28
HETATM   28  C6    D T 441       8.508  15.811  -3.078  1.00 20.70     0.021 A 
HETATM   29  C7    D T 441       8.453  16.237  -1.727  1.00 21.08    -0.001 A 
HETATM   30  C8    D T 441       9.549  16.878  -1.133  1.00 21.56     0.011 A 
HETATM   31  C9    D T 441      10.718  17.105  -1.871  1.00 22.96     0.058 A 
HETATM   32 CL1    D T 441      12.112  17.880  -1.083  1.00 26.89    -0.082 Cl
HETATM   33  C10   D T 441      10.794  16.695  -3.219  1.00 22.08     0.011 A 
HETATM   34  C11   D T 441       9.692  16.048  -3.822  1.00 21.58    -0.001 A 
ENDBRANCH  20  28
ENDBRANCH   1  20
TORSDOF 3
ENDMDL
MODEL 7
REMARK VINA RESULT:    -8.599      3.700      7.424
REMARK INTER + INTRA:          -9.992
REMARK INTER:                 -10.880
REMARK INTRA:                   0.887
REMARK UNBOUND:                 0.116
REMARK  3 active torsions:
REMARK  status: ('A' for Active; 'I' for Inactive)
REMARK    1  A    between atoms: C4_6  and  C5_7 
REMARK    2  A    between atoms: C5_7  and  C6_8 
REMARK    3  A    between atoms: C5_7  and  C12_16 
ROOT
HETATM    1  C12   D T 441       7.068  12.164   1.817  1.00 19.85     0.021 A 
HETATM    2  C13   D T 441       6.498  12.956   0.780  1.00 19.83    -0.000 A 
HETATM    3  C14   D T 441       5.091  13.150   0.692  1.00 20.16     0.016 A 
HETATM    4  C15   D T 441       6.206  11.597   2.789  1.00 20.41    -0.000 A 
HETATM    5  C16   D T 441       4.816  11.781   2.708  1.00 20.73     0.017 A 
HETATM    6  C17   D T 441       4.248  12.541   1.663  1.00 21.09     0.062 A 
HETATM    7  N4    D T 441       2.827  12.653   1.537  1.00 20.91    -0.294 N 
HETATM    8  C18   D T 441       1.918  12.033   2.546  1.00 20.23     0.134 C 
HETATM    9  C19   D T 441       2.264  13.359   0.451  1.00 22.47     0.261 A 
HETATM   10  O1    D T 441       1.041  13.415   0.315  1.00 22.92    -0.267 OA
HETATM   11  C20   D T 441       3.096  13.971  -0.491  1.00 22.04     0.061 A 
HETATM   12  C21   D T 441       4.502  13.889  -0.387  1.00 20.64     0.006 A 
HETATM   13  C22   D T 441       5.281  14.636  -1.310  1.00 21.65     0.001 A 
HETATM   14  C23   D T 441       6.219  14.008  -2.163  1.00 20.99     0.011 A 
HETATM   15  C24   D T 441       6.934  14.777  -3.107  1.00 22.35     0.058 A 
HETATM   16 CL2    D T 441       8.092  13.998  -4.195  1.00 26.30    -0.082 Cl
HETATM   17  C25   D T 441       6.723  16.165  -3.206  1.00 21.98     0.011 A 
HETATM   18  C26   D T 441       5.793  16.792  -2.362  1.00 20.12     0.001 A 
HETATM   19  C27   D T 441       5.077  16.033  -1.419  1.00 21.15     0.000 A 
ENDROOT
BRANCH   1  20
HETATM   20  C5    D T 441       8.462  11.785   1.797  1.00 20.67     0.342 C 
HETATM   21  N3    D T 441       8.510  10.697   0.799  1.00 22.80     0.629 N 
BRANCH  20  22
HETATM   22  C4    D T 441       9.356  12.800   1.276  1.00 19.37     0.100 A 
HETATM   23  N1    D T 441      10.643  12.611   1.056  1.00 19.33    -0.308 N 
HETATM   24  C1    D T 441      11.420  11.354   1.214  1.00 19.43     0.132 C 
HETATM   25  C2    D T 441      11.147  13.781   0.671  1.00 17.45     0.178 A 
HETATM   26  N2    D T 441      10.127  14.679   0.667  1.00 18.66    -0.223 NA
HETATM   27  C3    D T 441       8.992  14.057   1.051  1.00 16.78     0.116 A 
ENDBRANCH  20  22
BRANCH  20  28
HETATM   28  C6    D T 441       8.933  11.221   3.026  1.00 20.70     0.021 A 
HETATM   29  C7    D T 441       8.816   9.827   3.258  1.00 21.08    -0.001 A 
HETATM   30  C8    D T 441       9.324   9.251   4.430  1.00 21.56     0.011 A 
HETATM   31  C9    D T 441       9.956  10.050   5.391  1.00 22.96     0.058 A 
HETATM   32 CL1    D T 441      10.633   9.290   6.852  1.00 26.89    -0.082 Cl
HETATM   33  C10   D T 441      10.079  11.440   5.186  1.00 22.08     0.011 A 
HETATM   34  C11   D T 441       9.569  12.026   4.005  1.00 21.58    -0.001 A 
ENDBRANCH  20  28
ENDBRANCH   1  20
TORSDOF 3
ENDMDL
MODEL 8
REMARK VINA RESULT:    -8.321      2.778      4.395
REMARK INTER + INTRA:          -9.665
REMARK INTER:                 -10.046
REMARK INTRA:                   0.381
REMARK UNBOUND:                 0.116
REMARK  3 active torsions:
REMARK  status: ('A' for Active; 'I' for Inactive)
REMARK    1  A    between atoms: C4_6  and  C5_7 
REMARK    2  A    between atoms: C5_7  and  C6_8 
REMARK    3  A    between atoms: C5_7  and  C12_16 
ROOT
HETATM    1  C12   D T 441       6.811  15.402  -0.671  1.00 19.85     0.021 A 
HETATM    2  C13   D T 441       6.294  14.360   0.152  1.00 19.83    -0.000 A 
HETATM    3  C14   D T 441       7.162  13.482   0.858  1.00 20.16     0.016 A 
HETATM    4  C15   D T 441       8.216  15.573  -0.745  1.00 20.41    -0.000 A 
HETATM    5  C16   D T 441       9.081  14.709  -0.053  1.00 20.73     0.017 A 
HETATM    6  C17   D T 441       8.569  13.658   0.738  1.00 21.09     0.062 A 
HETATM    7  N4    D T 441       9.455  12.729   1.371  1.00 20.91    -0.294 N 
HETATM    8  C18   D T 441      10.936  12.894   1.271  1.00 20.23     0.134 C 
HETATM    9  C19   D T 441       8.936  11.641   2.107  1.00 22.47     0.261 A 
HETATM   10  O1    D T 441       9.697  10.814   2.611  1.00 22.92    -0.267 OA
HETATM   11  C20   D T 441       7.553  11.483   2.237  1.00 22.04     0.061 A 
HETATM   12  C21   D T 441       6.654  12.389   1.635  1.00 20.64     0.006 A 
HETATM   13  C22   D T 441       5.269  12.234   1.912  1.00 21.65     0.001 A 
HETATM   14  C23   D T 441       4.328  12.025   0.877  1.00 20.99     0.011 A 
HETATM   15  C24   D T 441       2.968  11.819   1.197  1.00 22.35     0.058 A 
HETATM   16 CL2    D T 441       1.786  11.533  -0.089  1.00 26.30    -0.082 Cl
HETATM   17  C25   D T 441       2.540  11.821   2.538  1.00 21.98     0.011 A 
HETATM   18  C26   D T 441       3.471  12.027   3.568  1.00 20.12     0.001 A 
HETATM   19  C27   D T 441       4.827  12.234   3.257  1.00 21.15     0.000 A 
ENDROOT
BRANCH   1  20
HETATM   20  C5    D T 441       5.955  16.159  -1.556  1.00 20.67     0.342 C 
HETATM   21  N3    D T 441       5.943  17.508  -0.955  1.00 22.80     0.629 N 
BRANCH  20  22
HETATM   22  C4    D T 441       6.489  16.355  -2.889  1.00 19.37     0.100 A 
HETATM   23  N1    D T 441       6.941  15.382  -3.656  1.00 19.33    -0.308 N 
HETATM   24  C1    D T 441       6.940  13.922  -3.373  1.00 19.43     0.132 C 
HETATM   25  C2    D T 441       7.428  15.949  -4.757  1.00 17.45     0.178 A 
HETATM   26  N2    D T 441       7.258  17.291  -4.629  1.00 18.66    -0.223 NA
HETATM   27  C3    D T 441       6.662  17.548  -3.445  1.00 16.78     0.116 A 
ENDBRANCH  20  22
BRANCH  20  28
HETATM   28  C6    D T 441       4.593  15.716  -1.572  1.00 20.70     0.021 A 
HETATM   29  C7    D T 441       4.293  14.354  -1.829  1.00 21.08    -0.001 A 
HETATM   30  C8    D T 441       2.970  13.893  -1.791  1.00 21.56     0.011 A 
HETATM   31  C9    D T 441       1.924  14.777  -1.496  1.00 22.96     0.058 A 
HETATM   32 CL1    D T 441       0.257  14.159  -1.408  1.00 26.89    -0.082 Cl
HETATM   33  C10   D T 441       2.197  16.137  -1.242  1.00 22.08     0.011 A 
HETATM   34  C11   D T 441       3.530  16.607  -1.279  1.00 21.58    -0.001 A 
ENDBRANCH  20  28
ENDBRANCH   1  20
TORSDOF 3
ENDMDL
MODEL 9
REMARK VINA RESULT:    -8.094      4.025      6.985
REMARK INTER + INTRA:          -9.398
REMARK INTER:                  -9.605
REMARK INTRA:                   0.207
REMARK UNBOUND:                 0.116
REMARK  3 active torsions:
REMARK  status: ('A' for Active; 'I' for Inactive)
REMARK    1  A    between atoms: C4_6  and  C5_7 
REMARK    2  A    between atoms: C5_7  and  C6_8 
REMARK    3  A    between atoms: C5_7  and  C12_16 
ROOT
HETATM    1  C12   D T 441       7.409  16.451  -4.735  1.00 19.85     0.021 A 
HETATM    2  C13   D T 441       6.514  16.097  -3.685  1.00 19.83    -0.000 A 
HETATM    3  C14   D T 441       5.232  16.703  -3.576  1.00 20.16     0.016 A 
HETATM    4  C15   D T 441       6.982  17.399  -5.698  1.00 20.41    -0.000 A 
HETATM    5  C16   D T 441       5.719  18.005  -5.597  1.00 20.73     0.017 A 
HETATM    6  C17   D T 441       4.845  17.676  -4.540  1.00 21.09     0.062 A 
HETATM    7  N4    D T 441       3.595  18.359  -4.393  1.00 20.91    -0.294 N 
HETATM    8  C18   D T 441       3.157  19.377  -5.393  1.00 20.23     0.134 C 
HETATM    9  C19   D T 441       2.753  18.072  -3.296  1.00 22.47     0.261 A 
HETATM   10  O1    D T 441       1.701  18.693  -3.142  1.00 22.92    -0.267 OA
HETATM   11  C20   D T 441       3.130  17.102  -2.361  1.00 22.04     0.061 A 
HETATM   12  C21   D T 441       4.350  16.403  -2.486  1.00 20.64     0.006 A 
HETATM   13  C22   D T 441       4.609  15.350  -1.568  1.00 21.65     0.001 A 
HETATM   14  C23   D T 441       5.749  15.361  -0.732  1.00 20.99     0.011 A 
HETATM   15  C24   D T 441       5.942  14.323   0.206  1.00 22.35     0.058 A 
HETATM   16 CL2    D T 441       7.353  14.340   1.273  1.00 26.30    -0.082 Cl
HETATM   17  C25   D T 441       5.008  13.276   0.316  1.00 21.98     0.011 A 
HETATM   18  C26   D T 441       3.874  13.261  -0.511  1.00 20.12     0.001 A 
HETATM   19  C27   D T 441       3.676  14.290  -1.448  1.00 21.15     0.000 A 
ENDROOT
BRANCH   1  20
HETATM   20  C5    D T 441       8.784  16.007  -4.736  1.00 20.67     0.342 C 
HETATM   21  N3    D T 441       8.676  14.548  -4.939  1.00 22.80     0.629 N 
BRANCH  20  22
HETATM   22  C4    D T 441       9.570  16.477  -5.860  1.00 19.37     0.100 A 
HETATM   23  N1    D T 441      10.049  17.701  -5.966  1.00 19.33    -0.308 N 
HETATM   24  C1    D T 441       9.962  18.806  -4.974  1.00 19.43     0.132 C 
HETATM   25  C2    D T 441      10.631  17.788  -7.160  1.00 17.45     0.178 A 
HETATM   26  N2    D T 441      10.486  16.581  -7.769  1.00 18.66    -0.223 NA
HETATM   27  C3    D T 441       9.813  15.751  -6.944  1.00 16.78     0.116 A 
ENDBRANCH  20  22
BRANCH  20  28
HETATM   28  C6    D T 441       9.457  16.188  -3.485  1.00 20.70     0.021 A 
HETATM   29  C7    D T 441       8.775  16.779  -2.391  1.00 21.08    -0.001 A 
HETATM   30  C8    D T 441       9.401  16.910  -1.144  1.00 21.56     0.011 A 
HETATM   31  C9    D T 441      10.713  16.455  -0.962  1.00 22.96     0.058 A 
HETATM   32 CL1    D T 441      11.471  16.591   0.643  1.00 26.89    -0.082 Cl
HETATM   33  C10   D T 441      11.414  15.868  -2.037  1.00 22.08     0.011 A 
HETATM   34  C11   D T 441      10.788  15.734  -3.297  1.00 21.58    -0.001 A 
ENDBRANCH  20  28
ENDBRANCH   1  20
TORSDOF 3
ENDMDL
