MODEL 1
REMARK VINA RESULT:      -7.2      0.000      0.000
REMARK  2 active torsions:
REMARK  status: ('A' for Active; 'I' for Inactive)
REMARK    1  A    between atoms: C5_4  and  O7_13 
REMARK    2  A    between atoms: C8_10  and  O7_13 
ROOT
HETATM    1  O7    D T 600       2.761  11.889   2.787  1.00 18.03    -0.309 OA
ENDROOT
BRANCH   1   2
HETATM    2  C5    D T 600       1.857  12.377   1.828  1.00 18.33     0.099 A 
HETATM    3  C6    D T 600       0.766  13.322   2.156  1.00 17.53     0.132 A 
HETATM    4  C1    D T 600      -0.155  13.797   1.125  1.00 16.53     0.089 A 
HETATM    5  O17   D T 600       0.588  13.776   3.446  1.00 20.49    -0.193 OA
HETATM    6  C2    D T 600       0.026  13.320  -0.230  1.00 14.58     0.020 A 
HETATM    7  C3    D T 600       1.099  12.389  -0.560  1.00 14.14     0.041 A 
HETATM    8 CL14   D T 600      -0.979  13.823  -1.458  1.00  1.00    -0.091 Cl
HETATM    9  C4    D T 600       2.014  11.920   0.470  1.00 16.13     0.059 A 
ENDBRANCH   1   2
BRANCH   1  10
HETATM   10  C8    D T 600       4.189  12.074   2.682  1.00 16.10     0.106 A 
HETATM   11  C9    D T 600       5.061  11.038   3.441  1.00 14.15     0.063 A 
HETATM   12  C10   D T 600       6.508  11.158   3.401  1.00 14.71     0.078 A 
HETATM   13 CL16   D T 600       4.369   9.793   4.316  1.00  1.00    -0.085 Cl
HETATM   14  C11   D T 600       7.087  12.307   2.602  1.00 14.35     0.041 A 
HETATM   15  C12   D T 600       6.237  13.204   1.933  1.00 18.52     0.009 A 
HETATM   16 CL15   D T 600       8.765  12.435   2.581  1.00  1.63    -0.087 Cl
HETATM   17  C13   D T 600       4.881  13.149   1.933  1.00 15.99     0.026 A 
ENDBRANCH   1  10
TORSDOF 2
ENDMDL
MODEL 2
REMARK VINA RESULT:      -6.8      2.447      2.978
REMARK  2 active torsions:
REMARK  status: ('A' for Active; 'I' for Inactive)
REMARK    1  A    between atoms: C5_4  and  O7_13 
REMARK    2  A    between atoms: C8_10  and  O7_13 
ROOT
HETATM    1  O7    D T 600       2.686  12.396   0.340  1.00 18.03    -0.309 OA
ENDROOT
BRANCH   1   2
HETATM    2  C5    D T 600       1.336  12.781   0.404  1.00 18.33     0.099 A 
HETATM    3  C6    D T 600       0.655  13.127   1.673  1.00 17.53     0.132 A 
HETATM    4  C1    D T 600      -0.754  13.515   1.690  1.00 16.53     0.089 A 
HETATM    5  O17   D T 600       1.334  13.087   2.872  1.00 20.49    -0.193 OA
HETATM    6  C2    D T 600      -1.472  13.555   0.434  1.00 14.58     0.020 A 
HETATM    7  C3    D T 600      -0.807  13.215  -0.820  1.00 14.14     0.041 A 
HETATM    8 CL14   D T 600      -3.075  13.995   0.375  1.00  1.00    -0.091 Cl
HETATM    9  C4    D T 600       0.596  12.830  -0.832  1.00 16.13     0.059 A 
ENDBRANCH   1   2
BRANCH   1  10
HETATM   10  C8    D T 600       3.750  13.323   0.033  1.00 16.10     0.106 A 
HETATM   11  C9    D T 600       4.908  13.385   1.066  1.00 14.15     0.063 A 
HETATM   12  C10   D T 600       6.012  14.301   0.843  1.00 14.71     0.078 A 
HETATM   13 CL16   D T 600       4.904  12.429   2.436  1.00  1.00    -0.085 Cl
HETATM   14  C11   D T 600       5.966  15.152  -0.409  1.00 14.35     0.041 A 
HETATM   15  C12   D T 600       4.889  15.039  -1.305  1.00 18.52     0.009 A 
HETATM   16 CL15   D T 600       7.250  16.217  -0.640  1.00  1.63    -0.087 Cl
HETATM   17  C13   D T 600       3.828  14.206  -1.153  1.00 15.99     0.026 A 
ENDBRANCH   1  10
TORSDOF 2
ENDMDL
MODEL 3
REMARK VINA RESULT:      -6.8      3.217      6.399
REMARK  2 active torsions:
REMARK  status: ('A' for Active; 'I' for Inactive)
REMARK    1  A    between atoms: C5_4  and  O7_13 
REMARK    2  A    between atoms: C8_10  and  O7_13 
ROOT
HETATM    1  O7    D T 600       4.451  12.878  -0.940  1.00 18.03    -0.309 OA
ENDROOT
BRANCH   1   2
HETATM    2  C5    D T 600       5.144  12.509   0.225  1.00 18.33     0.099 A 
HETATM    3  C6    D T 600       4.493  12.403   1.551  1.00 17.53     0.132 A 
HETATM    4  C1    D T 600       5.257  12.023   2.737  1.00 16.53     0.089 A 
HETATM    5  O17   D T 600       3.147  12.665   1.700  1.00 20.49    -0.193 OA
HETATM    6  C2    D T 600       6.670  11.751   2.586  1.00 14.58     0.020 A 
HETATM    7  C3    D T 600       7.319  11.853   1.283  1.00 14.14     0.041 A 
HETATM    8 CL14   D T 600       7.603  11.305   3.891  1.00  1.00    -0.091 Cl
HETATM    9  C4    D T 600       6.553  12.231   0.105  1.00 16.13     0.059 A 
ENDBRANCH   1   2
BRANCH   1  10
HETATM   10  C8    D T 600       4.076  14.242  -1.229  1.00 16.10     0.106 A 
HETATM   11  C9    D T 600       2.552  14.509  -1.362  1.00 14.15     0.063 A 
HETATM   12  C10   D T 600       2.087  15.851  -1.665  1.00 14.71     0.078 A 
HETATM   13 CL16   D T 600       1.435  13.280  -1.174  1.00  1.00    -0.085 Cl
HETATM   14  C11   D T 600       3.138  16.928  -1.834  1.00 14.35     0.041 A 
HETATM   15  C12   D T 600       4.502  16.616  -1.693  1.00 18.52     0.009 A 
HETATM   16 CL15   D T 600       2.578  18.473  -2.199  1.00  1.63    -0.087 Cl
HETATM   17  C13   D T 600       5.000  15.385  -1.412  1.00 15.99     0.026 A 
ENDBRANCH   1  10
TORSDOF 2
ENDMDL
MODEL 4
REMARK VINA RESULT:      -6.6      2.546      7.019
REMARK  2 active torsions:
REMARK  status: ('A' for Active; 'I' for Inactive)
REMARK    1  A    between atoms: C5_4  and  O7_13 
REMARK    2  A    between atoms: C8_10  and  O7_13 
ROOT
HETATM    1  O7    D T 600       4.622  13.563  -0.658  1.00 18.03    -0.309 OA
ENDROOT
BRANCH   1   2
HETATM    2  C5    D T 600       5.400  12.994   0.365  1.00 18.33     0.099 A 
HETATM    3  C6    D T 600       6.656  12.254   0.105  1.00 17.53     0.132 A 
HETATM    4  C1    D T 600       7.428  11.673   1.201  1.00 16.53     0.089 A 
HETATM    5  O17   D T 600       7.127  12.091  -1.181  1.00 20.49    -0.193 OA
HETATM    6  C2    D T 600       6.936  11.839   2.552  1.00 14.58     0.020 A 
HETATM    7  C3    D T 600       5.699  12.568   2.815  1.00 14.14     0.041 A 
HETATM    8 CL14   D T 600       7.766  11.212   3.851  1.00  1.00    -0.091 Cl
HETATM    9  C4    D T 600       4.935  13.145   1.720  1.00 16.13     0.059 A 
ENDBRANCH   1   2
BRANCH   1  10
HETATM   10  C8    D T 600       3.181  13.471  -0.688  1.00 16.10     0.106 A 
HETATM   11  C9    D T 600       2.442  14.669  -1.342  1.00 14.15     0.063 A 
HETATM   12  C10   D T 600       0.991  14.666  -1.401  1.00 14.71     0.078 A 
HETATM   13 CL16   D T 600       3.281  15.972  -1.969  1.00  1.00    -0.085 Cl
HETATM   14  C11   D T 600       0.276  13.468  -0.812  1.00 14.35     0.041 A 
HETATM   15  C12   D T 600       1.009  12.414  -0.241  1.00 18.52     0.009 A 
HETATM   16 CL15   D T 600      -1.407  13.490  -0.879  1.00  1.63    -0.087 Cl
HETATM   17  C13   D T 600       2.363  12.358  -0.153  1.00 15.99     0.026 A 
ENDBRANCH   1  10
TORSDOF 2
ENDMDL
MODEL 5
REMARK VINA RESULT:      -6.6      3.810      4.355
REMARK  2 active torsions:
REMARK  status: ('A' for Active; 'I' for Inactive)
REMARK    1  A    between atoms: C5_4  and  O7_13 
REMARK    2  A    between atoms: C8_10  and  O7_13 
ROOT
HETATM    1  O7    D T 600       3.855  12.768  -1.049  1.00 18.03    -0.309 OA
ENDROOT
BRANCH   1   2
HETATM    2  C5    D T 600       3.650  14.066  -1.547  1.00 18.33     0.099 A 
HETATM    3  C6    D T 600       4.572  14.716  -2.506  1.00 17.53     0.132 A 
HETATM    4  C1    D T 600       4.321  16.072  -2.991  1.00 16.53     0.089 A 
HETATM    5  O17   D T 600       5.694  14.059  -2.965  1.00 20.49    -0.193 OA
HETATM    6  C2    D T 600       3.147  16.768  -2.509  1.00 14.58     0.020 A 
HETATM    7  C3    D T 600       2.234  16.133  -1.563  1.00 14.14     0.041 A 
HETATM    8 CL14   D T 600       2.793  18.311  -3.022  1.00  1.00    -0.091 Cl
HETATM    9  C4    D T 600       2.488  14.782  -1.085  1.00 16.13     0.059 A 
ENDBRANCH   1   2
BRANCH   1  10
HETATM   10  C8    D T 600       4.776  12.478   0.024  1.00 16.10     0.106 A 
HETATM   11  C9    D T 600       4.149  12.377   1.441  1.00 14.15     0.063 A 
HETATM   12  C10   D T 600       5.005  12.102   2.581  1.00 14.71     0.078 A 
HETATM   13 CL16   D T 600       2.509  12.590   1.684  1.00  1.00    -0.085 Cl
HETATM   14  C11   D T 600       6.485  11.925   2.311  1.00 14.35     0.041 A 
HETATM   15  C12   D T 600       6.983  12.023   1.001  1.00 18.52     0.009 A 
HETATM   16 CL15   D T 600       7.461  11.621   3.649  1.00  1.63    -0.087 Cl
HETATM   17  C13   D T 600       6.238  12.279  -0.105  1.00 15.99     0.026 A 
ENDBRANCH   1  10
TORSDOF 2
ENDMDL
MODEL 6
REMARK VINA RESULT:      -6.6      3.296      3.882
REMARK  2 active torsions:
REMARK  status: ('A' for Active; 'I' for Inactive)
REMARK    1  A    between atoms: C5_4  and  O7_13 
REMARK    2  A    between atoms: C8_10  and  O7_13 
ROOT
HETATM    1  O7    D T 600       3.954  12.667  -0.555  1.00 18.03    -0.309 OA
ENDROOT
BRANCH   1   2
HETATM    2  C5    D T 600       3.591  13.957  -0.977  1.00 18.33     0.099 A 
HETATM    3  C6    D T 600       2.194  14.345  -1.275  1.00 17.53     0.132 A 
HETATM    4  C1    D T 600       1.866  15.699  -1.718  1.00 16.53     0.089 A 
HETATM    5  O17   D T 600       1.165  13.436  -1.145  1.00 20.49    -0.193 OA
HETATM    6  C2    D T 600       2.943  16.656  -1.859  1.00 14.58     0.020 A 
HETATM    7  C3    D T 600       4.322  16.280  -1.567  1.00 14.14     0.041 A 
HETATM    8 CL14   D T 600       2.644  18.217  -2.352  1.00  1.00    -0.091 Cl
HETATM    9  C4    D T 600       4.643  14.931  -1.125  1.00 16.13     0.059 A 
ENDBRANCH   1   2
BRANCH   1  10
HETATM   10  C8    D T 600       4.880  12.429   0.528  1.00 16.10     0.106 A 
HETATM   11  C9    D T 600       6.350  12.160   0.110  1.00 14.15     0.063 A 
HETATM   12  C10   D T 600       7.345  11.896   1.134  1.00 14.71     0.078 A 
HETATM   13 CL16   D T 600       6.811  12.156  -1.497  1.00  1.00    -0.085 Cl
HETATM   14  C11   D T 600       6.877  11.903   2.574  1.00 14.35     0.041 A 
HETATM   15  C12   D T 600       5.530  12.161   2.881  1.00 18.52     0.009 A 
HETATM   16 CL15   D T 600       8.045  11.582   3.744  1.00  1.63    -0.087 Cl
HETATM   17  C13   D T 600       4.553  12.412   1.972  1.00 15.99     0.026 A 
ENDBRANCH   1  10
TORSDOF 2
ENDMDL
MODEL 7
REMARK VINA RESULT:      -6.6      3.073      6.405
REMARK  2 active torsions:
REMARK  status: ('A' for Active; 'I' for Inactive)
REMARK    1  A    between atoms: C5_4  and  O7_13 
REMARK    2  A    between atoms: C8_10  and  O7_13 
ROOT
HETATM    1  O7    D T 600       4.055  12.327  -0.292  1.00 18.03    -0.309 OA
ENDROOT
BRANCH   1   2
HETATM    2  C5    D T 600       5.072  13.268  -0.529  1.00 18.33     0.099 A 
HETATM    3  C6    D T 600       5.612  13.548  -1.878  1.00 17.53     0.132 A 
HETATM    4  C1    D T 600       6.676  14.532  -2.075  1.00 16.53     0.089 A 
HETATM    5  O17   D T 600       5.127  12.885  -2.986  1.00 20.49    -0.193 OA
HETATM    6  C2    D T 600       7.190  15.228  -0.915  1.00 14.58     0.020 A 
HETATM    7  C3    D T 600       6.662  14.957   0.418  1.00 14.14     0.041 A 
HETATM    8 CL14   D T 600       8.396  16.366  -1.062  1.00  1.00    -0.091 Cl
HETATM    9  C4    D T 600       5.602  13.978   0.607  1.00 16.13     0.059 A 
ENDBRANCH   1   2
BRANCH   1  10
HETATM   10  C8    D T 600       2.677  12.702  -0.077  1.00 16.10     0.106 A 
HETATM   11  C9    D T 600       2.158  12.554   1.379  1.00 14.15     0.063 A 
HETATM   12  C10   D T 600       0.779  12.895   1.682  1.00 14.71     0.078 A 
HETATM   13 CL16   D T 600       3.150  11.998   2.604  1.00  1.00    -0.085 Cl
HETATM   14  C11   D T 600      -0.082  13.386   0.537  1.00 14.35     0.041 A 
HETATM   15  C12   D T 600       0.457  13.502  -0.756  1.00 18.52     0.009 A 
HETATM   16 CL15   D T 600      -1.681  13.762   0.908  1.00  1.63    -0.087 Cl
HETATM   17  C13   D T 600       1.733  13.199  -1.105  1.00 15.99     0.026 A 
ENDBRANCH   1  10
TORSDOF 2
ENDMDL
MODEL 8
REMARK VINA RESULT:      -6.6      2.292      6.605
REMARK  2 active torsions:
REMARK  status: ('A' for Active; 'I' for Inactive)
REMARK    1  A    between atoms: C5_4  and  O7_13 
REMARK    2  A    between atoms: C8_10  and  O7_13 
ROOT
HETATM    1  O7    D T 600       5.698  12.133   3.086  1.00 18.03    -0.309 OA
ENDROOT
BRANCH   1   2
HETATM    2  C5    D T 600       6.994  11.845   2.627  1.00 18.33     0.099 A 
HETATM    3  C6    D T 600       7.862  12.853   1.976  1.00 17.53     0.132 A 
HETATM    4  C1    D T 600       9.202  12.504   1.508  1.00 16.53     0.089 A 
HETATM    5  O17   D T 600       7.425  14.148   1.793  1.00 20.49    -0.193 OA
HETATM    6  C2    D T 600       9.663  11.145   1.695  1.00 14.58     0.020 A 
HETATM    7  C3    D T 600       8.813  10.146   2.335  1.00 14.14     0.041 A 
HETATM    8 CL14   D T 600      11.179  10.676   1.193  1.00  1.00    -0.091 Cl
HETATM    9  C4    D T 600       7.480  10.500   2.800  1.00 16.13     0.059 A 
ENDBRANCH   1   2
BRANCH   1  10
HETATM   10  C8    D T 600       4.563  12.254   2.201  1.00 16.10     0.106 A 
HETATM   11  C9    D T 600       3.411  11.241   2.441  1.00 14.15     0.063 A 
HETATM   12  C10   D T 600       2.237  11.281   1.587  1.00 14.71     0.078 A 
HETATM   13 CL16   D T 600       3.498  10.095   3.655  1.00  1.00    -0.085 Cl
HETATM   14  C11   D T 600       2.208  12.332   0.496  1.00 14.35     0.041 A 
HETATM   15  C12   D T 600       3.285  13.222   0.341  1.00 18.52     0.009 A 
HETATM   16 CL15   D T 600       0.845  12.352  -0.490  1.00  1.63    -0.087 Cl
HETATM   17  C13   D T 600       4.409  13.235   1.103  1.00 15.99     0.026 A 
ENDBRANCH   1  10
TORSDOF 2
ENDMDL
MODEL 9
REMARK VINA RESULT:      -6.5      4.479      5.441
REMARK  2 active torsions:
REMARK  status: ('A' for Active; 'I' for Inactive)
REMARK    1  A    between atoms: C5_4  and  O7_13 
REMARK    2  A    between atoms: C8_10  and  O7_13 
ROOT
HETATM    1  O7    D T 600       4.083  13.696  -2.064  1.00 18.03    -0.309 OA
ENDROOT
BRANCH   1   2
HETATM    2  C5    D T 600       3.765  15.030  -2.372  1.00 18.33     0.099 A 
HETATM    3  C6    D T 600       4.605  15.876  -3.249  1.00 17.53     0.132 A 
HETATM    4  C1    D T 600       4.238  17.262  -3.535  1.00 16.53     0.089 A 
HETATM    5  O17   D T 600       5.759  15.379  -3.818  1.00 20.49    -0.193 OA
HETATM    6  C2    D T 600       3.029  17.789  -2.938  1.00 14.58     0.020 A 
HETATM    7  C3    D T 600       2.197  16.960  -2.072  1.00 14.14     0.041 A 
HETATM    8 CL14   D T 600       2.544  19.355  -3.224  1.00  1.00    -0.091 Cl
HETATM    9  C4    D T 600       2.567  15.581  -1.792  1.00 16.13     0.059 A 
ENDBRANCH   1   2
BRANCH   1  10
HETATM   10  C8    D T 600       4.115  13.191  -0.711  1.00 16.10     0.106 A 
HETATM   11  C9    D T 600       5.386  13.540   0.108  1.00 14.15     0.063 A 
HETATM   12  C10   D T 600       5.508  13.060   1.474  1.00 14.71     0.078 A 
HETATM   13 CL16   D T 600       6.625  14.448  -0.552  1.00  1.00    -0.085 Cl
HETATM   14  C11   D T 600       4.363  12.235   2.024  1.00 14.35     0.041 A 
HETATM   15  C12   D T 600       3.238  11.963   1.227  1.00 18.52     0.009 A 
HETATM   16 CL15   D T 600       4.531  11.678   3.603  1.00  1.63    -0.087 Cl
HETATM   17  C13   D T 600       3.064  12.379  -0.054  1.00 15.99     0.026 A 
ENDBRANCH   1  10
TORSDOF 2
ENDMDL
