REMARK  2 active torsions:
REMARK  status: ('A' for Active; 'I' for Inactive)
REMARK    1  A    between atoms: C5_4  and  O7_13 
REMARK    2  A    between atoms: C8_10  and  O7_13 
ROOT
HETATM    1  O7    D T 502       6.617   2.394  -6.908  1.00 24.96    -0.304 OA
ENDROOT
BRANCH   1   2
HETATM    2  C5    D T 502       6.476   2.183  -8.245  1.00 24.69     0.125 A 
HETATM    3  C6    D T 502       6.379   0.877  -8.703  1.00 25.95     0.154 A 
HETATM    4  C1    D T 502       6.151   0.622 -10.075  1.00 27.27     0.041 A 
HETATM    5  O17   D T 502       6.544  -0.147  -7.800  1.00 23.71    -0.188 OA
HETATM    6  C2    D T 502       6.024   1.696 -10.965  1.00 21.79     0.060 A 
HETATM    7  C3    D T 502       6.133   3.007 -10.500  1.00 27.99     0.014 A 
HETATM    8 CL14   D T 502       5.725   1.407 -12.630  1.00  9.14    -0.082 Cl
HETATM    9  C4    D T 502       6.355   3.257  -9.129  1.00 29.15     0.028 A 
ENDBRANCH   1   2
BRANCH   1  10
HETATM   10  C8    D T 502       7.872   2.455  -6.374  1.00 22.86     0.111 A 
HETATM   11  C9    D T 502       7.999   2.802  -4.997  1.00 16.25     0.081 A 
HETATM   12  C10   D T 502       9.278   2.896  -4.423  1.00 16.94     0.025 A 
HETATM   13 CL16   D T 502       6.603   3.148  -4.035  1.00  2.00    -0.080 Cl
HETATM   14  C11   D T 502      10.427   2.647  -5.220  1.00 21.46     0.059 A 
HETATM   15  C12   D T 502      10.298   2.301  -6.591  1.00 21.21     0.013 A 
HETATM   16 CL15   D T 502      12.000   2.789  -4.518  1.00  9.25    -0.082 Cl
HETATM   17  C13   D T 502       9.018   2.205  -7.167  1.00 21.49     0.026 A 
ENDBRANCH   1  10
TORSDOF 2
