REMARK  2 active torsions:
REMARK  status: ('A' for Active; 'I' for Inactive)
REMARK    1  A    between atoms: C5_4  and  O7_13 
REMARK    2  A    between atoms: C8_10  and  O7_13 
ROOT
HETATM    1  O7    D T 502       3.510  20.246 136.478  1.00 24.96    -0.304 OA
ENDROOT
BRANCH   1   2
HETATM    2  C5    D T 502       3.420  20.949 135.316  1.00 24.69     0.125 A 
HETATM    3  C6    D T 502       3.225  22.321 135.385  1.00 25.95     0.154 A 
HETATM    4  C1    D T 502       3.207  23.095 134.202  1.00 27.27     0.041 A 
HETATM    5  O17   D T 502       3.019  22.891 136.619  1.00 23.71    -0.188 OA
HETATM    6  C2    D T 502       3.386  22.466 132.963  1.00 21.79     0.060 A 
HETATM    7  C3    D T 502       3.571  21.085 132.899  1.00 27.99     0.014 A 
HETATM    8 CL14   D T 502       3.389  23.392 131.518  1.00  9.14    -0.082 Cl
HETATM    9  C4    D T 502       3.594  20.317 134.083  1.00 29.15     0.028 A 
ENDBRANCH   1   2
BRANCH   1  10
HETATM   10  C8    D T 502       2.374  19.732 137.033  1.00 22.86     0.111 A 
HETATM   11  C9    D T 502       2.507  18.894 138.179  1.00 16.25     0.081 A 
HETATM   12  C10   D T 502       1.359  18.331 138.761  1.00 16.94     0.025 A 
HETATM   13 CL16   D T 502       4.065  18.530 138.838  1.00  2.00    -0.080 Cl
HETATM   14  C11   D T 502       0.082  18.600 138.200  1.00 21.46     0.059 A 
HETATM   15  C12   D T 502      -0.048  19.435 137.060  1.00 21.21     0.013 A 
HETATM   16 CL15   D T 502      -1.326  17.884 138.902  1.00  9.25    -0.082 Cl
HETATM   17  C13   D T 502       1.100  20.001 136.477  1.00 21.49     0.026 A 
ENDBRANCH   1  10
TORSDOF 2
