REMARK  8 active torsions:
REMARK  status: ('A' for Active; 'I' for Inactive)
REMARK    1  A    between atoms: C3_5  and  N2_12 
REMARK    2  A    between atoms: N2_12  and  C10_13 
REMARK    3  A    between atoms: C10_13  and  C11_14 
REMARK    4  A    between atoms: C11_14  and  C12_15 
REMARK    5  A    between atoms: C12_15  and  C13_16 
REMARK    6  A    between atoms: C13_16  and  N3_17 
REMARK    7  A    between atoms: N3_17  and  C14_18 
REMARK    8  A    between atoms: N3_17  and  C16_20 
ROOT
HETATM    1 CL     D T1001      11.791   4.573 -11.595  1.00 22.69    -0.082 Cl
HETATM    2  N1    D T1001      13.057   9.556 -11.339  1.00 34.43    -0.244 NA
HETATM    3  C1    D T1001      13.055  10.833 -11.773  1.00 35.26     0.101 A 
HETATM    4  C2    D T1001      12.397  11.205 -12.938  1.00 34.24     0.039 A 
HETATM    5  C3    D T1001      11.698  10.222 -13.765  1.00 31.96     0.079 A 
HETATM    6  C4    D T1001      11.703   8.818 -13.305  1.00 33.68     0.035 A 
HETATM    7  C5    D T1001      11.047   7.703 -13.988  1.00 34.90     0.004 A 
HETATM    8  C6    D T1001      11.087   6.401 -13.470  1.00 32.93     0.012 A 
HETATM    9  C7    D T1001      11.779   6.165 -12.237  1.00 31.88     0.059 A 
HETATM   10  C8    D T1001      12.426   7.196 -11.536  1.00 32.37     0.031 A 
HETATM   11  C9    D T1001      12.398   8.521 -12.050  1.00 35.42     0.084 A 
ENDROOT
BRANCH   5  12
HETATM   12  N2    D T1001      11.044  10.559 -14.920  1.00 30.60    -0.273 NA
BRANCH  12  13
HETATM   13  C10   D T1001      11.046  11.886 -15.623  1.00 29.84     0.103 C 
HETATM   14  C18   D T1001      10.074  11.866 -16.793  1.00 30.59     0.026 C 
BRANCH  13  15
HETATM   15  C11   D T1001      12.481  12.246 -16.035  1.00 31.56     0.026 C 
BRANCH  15  16
HETATM   16  C12   D T1001      13.143  11.341 -17.059  1.00 32.62     0.037 C 
BRANCH  16  17
HETATM   17  C13   D T1001      14.646  11.573 -17.047  1.00 31.65     0.250 C 
BRANCH  17  18
HETATM   18  N3    D T1001      15.043  12.981 -17.393  1.00 36.76     0.137 N 
BRANCH  18  19
HETATM   19  C14   D T1001      16.484  13.318 -16.949  1.00 36.54     0.250 C 
HETATM   20  C15   D T1001      17.019  14.714 -17.252  1.00 37.02     0.037 C 
ENDBRANCH  18  19
BRANCH  18  21
HETATM   21  C16   D T1001      14.643  13.387 -18.784  1.00 33.74     0.250 C 
HETATM   22  C17   D T1001      15.538  12.892 -19.871  1.00 35.69     0.037 C 
ENDBRANCH  18  21
ENDBRANCH  17  18
ENDBRANCH  16  17
ENDBRANCH  15  16
ENDBRANCH  13  15
ENDBRANCH  12  13
ENDBRANCH   5  12
TORSDOF 8
