REMARK  8 active torsions:
REMARK  status: ('A' for Active; 'I' for Inactive)
REMARK    1  A    between atoms: C3_5  and  N2_12 
REMARK    2  A    between atoms: N2_12  and  C10_13 
REMARK    3  A    between atoms: C10_13  and  C11_14 
REMARK    4  A    between atoms: C11_14  and  C12_15 
REMARK    5  A    between atoms: C12_15  and  C13_16 
REMARK    6  A    between atoms: C13_16  and  N3_17 
REMARK    7  A    between atoms: N3_17  and  C14_18 
REMARK    8  A    between atoms: N3_17  and  C16_20 
ROOT
HETATM    1 CL     D T1001       7.849  -2.560 -12.312  1.00 22.69    -0.082 Cl
HETATM    2  N1    D T1001      10.603  -6.323 -10.134  1.00 34.43    -0.244 NA
HETATM    3  C1    D T1001      11.682  -6.828  -9.501  1.00 35.26     0.101 A 
HETATM    4  C2    D T1001      12.774  -6.034  -9.178  1.00 34.24     0.039 A 
HETATM    5  C3    D T1001      12.817  -4.617  -9.535  1.00 31.96     0.079 A 
HETATM    6  C4    D T1001      11.645  -4.055 -10.238  1.00 33.68     0.035 A 
HETATM    7  C5    D T1001      11.500  -2.662 -10.659  1.00 34.90     0.004 A 
HETATM    8  C6    D T1001      10.342  -2.209 -11.307  1.00 32.93     0.012 A 
HETATM    9  C7    D T1001       9.276  -3.135 -11.550  1.00 31.88     0.059 A 
HETATM   10  C8    D T1001       9.357  -4.483 -11.168  1.00 32.37     0.031 A 
HETATM   11  C9    D T1001      10.526  -4.960 -10.513  1.00 35.42     0.084 A 
ENDROOT
BRANCH   5  12
HETATM   12  N2    D T1001      13.881  -3.810  -9.232  1.00 30.60    -0.273 NA
BRANCH  12  13
HETATM   13  C10   D T1001      15.208  -4.218  -8.660  1.00 29.84     0.103 C 
HETATM   14  C18   D T1001      16.049  -2.988  -8.347  1.00 30.59     0.026 C 
BRANCH  13  15
HETATM   15  C11   D T1001      15.902  -5.196  -9.619  1.00 31.56     0.026 C 
BRANCH  15  16
HETATM   16  C12   D T1001      16.295  -4.653 -10.981  1.00 32.62     0.037 C 
BRANCH  16  17
HETATM   17  C13   D T1001      16.577  -5.809 -11.929  1.00 31.65     0.250 C 
BRANCH  17  18
HETATM   18  N3    D T1001      17.701  -6.700 -11.478  1.00 36.76     0.137 N 
BRANCH  18  19
HETATM   19  C14   D T1001      17.683  -8.078 -12.176  1.00 36.54     0.250 C 
HETATM   20  C15   D T1001      18.779  -9.076 -11.819  1.00 37.02     0.037 C 
ENDBRANCH  18  19
BRANCH  18  21
HETATM   21  C16   D T1001      19.024  -5.992 -11.395  1.00 33.74     0.250 C 
HETATM   22  C17   D T1001      19.726  -5.805 -12.700  1.00 35.69     0.037 C 
ENDBRANCH  18  21
ENDBRANCH  17  18
ENDBRANCH  16  17
ENDBRANCH  15  16
ENDBRANCH  13  15
ENDBRANCH  12  13
ENDBRANCH   5  12
TORSDOF 8
