REMARK  5 active torsions:
REMARK  status: ('A' for Active; 'I' for Inactive)
REMARK    1  A    between atoms: C1_1  and  C21_25 
REMARK    2  A    between atoms: N1_14  and  C13_15 
REMARK    3  A    between atoms: C13_15  and  C14_16 
REMARK    4  A    between atoms: C14_16  and  C15_17 
REMARK    5  A    between atoms: C15_17  and  N2_18 
ROOT
HETATM    1  C1    D T 153     -13.130  -4.221  19.688  1.00 26.21     0.073 A 
HETATM    2  C2    D T 153     -12.872  -3.668  18.440  1.00 21.83     0.004 A 
HETATM    3  C3    D T 153     -11.571  -3.561  18.005  1.00 19.56     0.008 A 
HETATM    4  C4    D T 153     -10.523  -4.008  18.790  1.00 21.19     0.045 A 
HETATM    5  C5    D T 153     -10.775  -4.652  20.000  1.00 23.95     0.066 A 
HETATM    6  C6    D T 153     -12.094  -4.705  20.479  1.00 23.48     0.022 A 
HETATM    7  S     D T 153      -8.867  -3.712  18.223  1.00 23.13    -0.084 SA
HETATM    8  C7    D T 153      -7.971  -3.574  19.700  1.00 22.23     0.045 A 
HETATM    9  C8    D T 153      -6.773  -2.853  19.666  1.00 19.63     0.008 A 
HETATM   10  C9    D T 153      -5.983  -2.734  20.785  1.00 14.46     0.001 A 
HETATM   11  C10   D T 153      -6.374  -3.361  21.931  1.00 16.71     0.002 A 
HETATM   12  C11   D T 153      -7.574  -4.079  21.965  1.00 22.55     0.018 A 
HETATM   13  C12   D T 153      -8.452  -4.168  20.866  1.00 24.03     0.066 A 
HETATM   14  N1    D T 153      -9.682  -5.024  20.854  1.00 27.67    -0.327 N 
ENDROOT
BRANCH  14  15
HETATM   15  C13   D T 153     -10.101  -5.685  22.090  1.00 25.39     0.108 C 
BRANCH  15  16
HETATM   16  C14   D T 153     -10.093  -7.216  21.963  1.00 23.98     0.049 C 
BRANCH  16  17
HETATM   17  C15   D T 153     -10.882  -7.905  23.081  1.00 23.67     0.108 C 
BRANCH  17  18
HETATM   18  N2    D T 153     -10.532  -9.279  23.302  1.00 22.79    -0.323 N 
HETATM   19  C16   D T 153     -11.534 -10.166  23.775  1.00 24.85     0.095 A 
HETATM   20  C17   D T 153     -11.240 -11.548  24.022  1.00 24.41     0.095 A 
HETATM   21  N3    D T 153      -9.925 -12.050  23.797  1.00 24.18    -0.321 N 
HETATM   22  C18   D T 153      -8.903 -11.172  23.334  1.00 23.65     0.095 A 
HETATM   23  C20   D T 153      -9.651 -13.425  24.036  1.00 22.39     0.131 C 
HETATM   24  C19   D T 153      -9.212  -9.784  23.086  1.00 24.93     0.095 A 
ENDBRANCH  17  18
ENDBRANCH  16  17
ENDBRANCH  15  16
ENDBRANCH  14  15
BRANCH   1  25
HETATM   25  C21   D T 153     -14.495  -4.206  20.205  1.00 26.87     0.419 C 
HETATM   26  F1    D T 153     -15.386  -3.768  19.355  1.00 26.36    -0.166 F 
HETATM   27  F2    D T 153     -14.600  -3.490  21.284  1.00 25.74    -0.166 F 
HETATM   28  F3    D T 153     -15.021  -5.324  20.585  1.00 29.44    -0.166 F 
ENDBRANCH   1  25
TORSDOF 5
