REMARK  5 active torsions:
REMARK  status: ('A' for Active; 'I' for Inactive)
REMARK    1  A    between atoms: C1_1  and  C21_25 
REMARK    2  A    between atoms: N1_14  and  C13_15 
REMARK    3  A    between atoms: C13_15  and  C14_16 
REMARK    4  A    between atoms: C14_16  and  C15_17 
REMARK    5  A    between atoms: C15_17  and  N2_18 
ROOT
HETATM    1  C1    D T 153     -12.688  -2.816  21.266  1.00 26.21     0.073 A 
HETATM    2  C2    D T 153     -12.460  -2.332  19.985  1.00 21.83     0.004 A 
HETATM    3  C3    D T 153     -11.167  -2.186  19.538  1.00 19.56     0.008 A 
HETATM    4  C4    D T 153     -10.096  -2.529  20.345  1.00 21.19     0.045 A 
HETATM    5  C5    D T 153     -10.313  -3.106  21.594  1.00 23.95     0.066 A 
HETATM    6  C6    D T 153     -11.627  -3.196  22.081  1.00 23.48     0.022 A 
HETATM    7  S     D T 153      -8.458  -2.186  19.752  1.00 23.13    -0.084 SA
HETATM    8  C7    D T 153      -7.568  -1.909  21.214  1.00 22.23     0.045 A 
HETATM    9  C8    D T 153      -6.409  -1.132  21.128  1.00 19.63     0.008 A 
HETATM   10  C9    D T 153      -5.624  -0.902  22.233  1.00 14.46     0.001 A 
HETATM   11  C10   D T 153      -5.981  -1.474  23.419  1.00 16.71     0.002 A 
HETATM   12  C11   D T 153      -7.143  -2.247  23.503  1.00 22.55     0.018 A 
HETATM   13  C12   D T 153      -8.016  -2.451  22.417  1.00 24.03     0.066 A 
HETATM   14  N1    D T 153      -9.202  -3.368  22.465  1.00 27.67    -0.327 N 
ENDROOT
BRANCH  14  15
HETATM   15  C13   D T 153      -9.585  -3.969  23.742  1.00 25.39     0.108 C 
BRANCH  15  16
HETATM   16  C14   D T 153      -9.499  -5.502  23.712  1.00 23.98     0.049 C 
BRANCH  16  17
HETATM   17  C15   D T 153     -10.250  -6.158  24.875  1.00 23.67     0.108 C 
BRANCH  17  18
HETATM   18  N2    D T 153      -9.830  -7.496  25.182  1.00 22.79    -0.323 N 
HETATM   19  C16   D T 153     -10.784  -8.401  25.715  1.00 24.85     0.095 A 
HETATM   20  C17   D T 153     -10.421  -9.747  26.048  1.00 24.41     0.095 A 
HETATM   21  N3    D T 153      -9.081 -10.195  25.849  1.00 24.18    -0.321 N 
HETATM   22  C18   D T 153      -8.107  -9.298  25.326  1.00 23.65     0.095 A 
HETATM   23  C20   D T 153      -8.738 -11.536  26.173  1.00 22.39     0.131 C 
HETATM   24  C19   D T 153      -8.486  -7.946  24.992  1.00 24.93     0.095 A 
ENDBRANCH  17  18
ENDBRANCH  16  17
ENDBRANCH  15  16
ENDBRANCH  14  15
BRANCH   1  25
HETATM   25  C21   D T 153     -14.051  -2.837  21.787  1.00 26.87     0.419 C 
HETATM   26  F1    D T 153     -14.964  -2.500  20.915  1.00 26.36    -0.166 F 
HETATM   27  F2    D T 153     -14.190  -2.060  22.819  1.00 25.74    -0.166 F 
HETATM   28  F3    D T 153     -14.518  -3.954  22.240  1.00 29.44    -0.166 F 
ENDBRANCH   1  25
TORSDOF 5
