REMARK  5 active torsions:
REMARK  status: ('A' for Active; 'I' for Inactive)
REMARK    1  A    between atoms: C1_1  and  C21_25 
REMARK    2  A    between atoms: N1_14  and  C13_15 
REMARK    3  A    between atoms: C13_15  and  C14_16 
REMARK    4  A    between atoms: C14_16  and  C15_17 
REMARK    5  A    between atoms: C15_17  and  N2_18 
ROOT
HETATM    1  C1    D T 153      24.964   4.612 -13.064  1.00 26.21     0.073 A 
HETATM    2  C2    D T 153      23.827   4.736 -12.278  1.00 21.83     0.004 A 
HETATM    3  C3    D T 153      22.611   4.969 -12.879  1.00 19.56     0.008 A 
HETATM    4  C4    D T 153      22.511   5.068 -14.256  1.00 21.19     0.045 A 
HETATM    5  C5    D T 153      23.626   4.849 -15.060  1.00 23.95     0.066 A 
HETATM    6  C6    D T 153      24.879   4.676 -14.451  1.00 23.48     0.022 A 
HETATM    7  S     D T 153      20.936   5.505 -14.950  1.00 23.13    -0.084 SA
HETATM    8  C7    D T 153      21.374   6.345 -16.402  1.00 22.23     0.045 A 
HETATM    9  C8    D T 153      20.450   7.254 -16.927  1.00 19.63     0.008 A 
HETATM   10  C9    D T 153      20.703   7.928 -18.098  1.00 14.46     0.001 A 
HETATM   11  C10   D T 153      21.866   7.671 -18.762  1.00 16.71     0.002 A 
HETATM   12  C11   D T 153      22.791   6.764 -18.234  1.00 22.55     0.018 A 
HETATM   13  C12   D T 153      22.609   6.105 -17.002  1.00 24.03     0.066 A 
HETATM   14  N1    D T 153      23.536   5.050 -16.480  1.00 27.67    -0.327 N 
ENDROOT
BRANCH  14  15
HETATM   15  C13   D T 153      24.788   4.787 -17.191  1.00 25.39     0.108 C 
BRANCH  15  16
HETATM   16  C14   D T 153      24.860   3.351 -17.730  1.00 23.98     0.049 C 
BRANCH  16  17
HETATM   17  C15   D T 153      26.282   2.940 -18.124  1.00 23.67     0.108 C 
BRANCH  17  18
HETATM   18  N2    D T 153      26.355   1.843 -19.047  1.00 22.79    -0.323 N 
HETATM   19  C16   D T 153      27.479   0.979 -18.987  1.00 24.85     0.095 A 
HETATM   20  C17   D T 153      27.609  -0.127 -19.889  1.00 24.41     0.095 A 
HETATM   21  N3    D T 153      26.603  -0.373 -20.869  1.00 24.18    -0.321 N 
HETATM   22  C18   D T 153      25.473   0.490 -20.953  1.00 23.65     0.095 A 
HETATM   23  C20   D T 153      26.741  -1.481 -21.750  1.00 22.39     0.131 C 
HETATM   24  C19   D T 153      25.351   1.599 -20.037  1.00 24.93     0.095 A 
ENDBRANCH  17  18
ENDBRANCH  16  17
ENDBRANCH  15  16
ENDBRANCH  14  15
BRANCH   1  25
HETATM   25  C21   D T 153      26.269   4.505 -12.418  1.00 26.87     0.419 C 
HETATM   26  F1    D T 153      26.216   4.411 -11.116  1.00 26.36    -0.166 F 
HETATM   27  F2    D T 153      27.039   5.511 -12.706  1.00 25.74    -0.166 F 
HETATM   28  F3    D T 153      27.026   3.504 -12.726  1.00 29.44    -0.166 F 
ENDBRANCH   1  25
TORSDOF 5
