REMARK  5 active torsions:
REMARK  status: ('A' for Active; 'I' for Inactive)
REMARK    1  A    between atoms: C1_1  and  C21_25 
REMARK    2  A    between atoms: N1_14  and  C13_15 
REMARK    3  A    between atoms: C13_15  and  C14_16 
REMARK    4  A    between atoms: C14_16  and  C15_17 
REMARK    5  A    between atoms: C15_17  and  N2_18 
ROOT
HETATM    1  C1    D T 153       3.466  14.828   0.882  1.00 26.21     0.073 A 
HETATM    2  C2    D T 153       4.716  14.448   0.413  1.00 21.83     0.004 A 
HETATM    3  C3    D T 153       5.474  13.566   1.147  1.00 19.56     0.008 A 
HETATM    4  C4    D T 153       4.999  13.047   2.339  1.00 21.19     0.045 A 
HETATM    5  C5    D T 153       3.709  13.345   2.772  1.00 23.95     0.066 A 
HETATM    6  C6    D T 153       2.957  14.294   2.061  1.00 23.48     0.022 A 
HETATM    7  S     D T 153       6.087  12.023   3.299  1.00 23.13    -0.084 SA
HETATM    8  C7    D T 153       5.557  12.313   4.923  1.00 22.23     0.045 A 
HETATM    9  C8    D T 153       6.477  12.090   5.953  1.00 19.63     0.008 A 
HETATM   10  C9    D T 153       6.122  12.255   7.271  1.00 14.46     0.001 A 
HETATM   11  C10   D T 153       4.839  12.614   7.563  1.00 16.71     0.002 A 
HETATM   12  C11   D T 153       3.922  12.839   6.531  1.00 22.55     0.018 A 
HETATM   13  C12   D T 153       4.258  12.754   5.166  1.00 24.03     0.066 A 
HETATM   14  N1    D T 153       3.259  12.883   4.055  1.00 27.67    -0.327 N 
ENDROOT
BRANCH  14  15
HETATM   15  C13   D T 153       1.887  13.278   4.374  1.00 25.39     0.108 C 
BRANCH  15  16
HETATM   16  C14   D T 153       0.867  12.195   3.994  1.00 23.98     0.049 C 
BRANCH  16  17
HETATM   17  C15   D T 153      -0.570  12.726   3.954  1.00 23.67     0.108 C 
BRANCH  17  18
HETATM   18  N2    D T 153      -1.585  11.720   4.080  1.00 22.79    -0.323 N 
HETATM   19  C16   D T 153      -2.833  11.930   3.438  1.00 24.85     0.095 A 
HETATM   20  C17   D T 153      -3.887  10.964   3.536  1.00 24.41     0.095 A 
HETATM   21  N3    D T 153      -3.693   9.769   4.291  1.00 24.18    -0.321 N 
HETATM   22  C18   D T 153      -2.451   9.545   4.952  1.00 23.65     0.095 A 
HETATM   23  C20   D T 153      -4.743   8.814   4.370  1.00 22.39     0.131 C 
HETATM   24  C19   D T 153      -1.396  10.525   4.843  1.00 24.93     0.095 A 
ENDBRANCH  17  18
ENDBRANCH  16  17
ENDBRANCH  15  16
ENDBRANCH  14  15
BRANCH   1  25
HETATM   25  C21   D T 153       2.725  15.868   0.174  1.00 26.87     0.419 C 
HETATM   26  F1    D T 153       3.283  16.260  -0.941  1.00 26.36    -0.166 F 
HETATM   27  F2    D T 153       2.541  16.922   0.910  1.00 25.74    -0.166 F 
HETATM   28  F3    D T 153       1.519  15.608  -0.212  1.00 29.44    -0.166 F 
ENDBRANCH   1  25
TORSDOF 5
