REMARK  2 active torsions:
REMARK  status: ('A' for Active; 'I' for Inactive)
REMARK    1  A    between atoms: C5_4  and  O7_13 
REMARK    2  A    between atoms: C8_10  and  O7_13 
ROOT
HETATM    1  O7    D T 502       6.218   2.502  -7.041  1.00 28.67    -0.304 OA
ENDROOT
BRANCH   1   2
HETATM    2  C5    D T 502       6.081   2.288  -8.369  1.00 33.71     0.125 A 
HETATM    3  C6    D T 502       5.905   0.956  -8.806  1.00 25.06     0.154 A 
HETATM    4  C1    D T 502       5.759   0.717 -10.121  1.00 17.88     0.041 A 
HETATM    5  O17   D T 502       5.898  -0.042  -7.941  1.00 23.24    -0.188 OA
HETATM    6  C2    D T 502       5.755   1.791 -10.971  1.00 31.97     0.060 A 
HETATM    7  C3    D T 502       5.922   3.120 -10.558  1.00 21.44     0.014 A 
HETATM    8 CL14   D T 502       5.509   1.479 -12.680  1.00 33.89    -0.082 Cl
HETATM    9  C4    D T 502       6.087   3.334  -9.240  1.00 26.23     0.028 A 
ENDBRANCH   1   2
BRANCH   1  10
HETATM   10  C8    D T 502       7.493   2.510  -6.472  1.00 57.24     0.111 A 
HETATM   11  C9    D T 502       7.628   3.095  -5.190  1.00 45.39     0.081 A 
HETATM   12  C10   D T 502       8.839   3.137  -4.549  1.00 19.78     0.025 A 
HETATM   13 CL16   D T 502       6.243   3.787  -4.378  1.00 34.00    -0.080 Cl
HETATM   14  C11   D T 502       9.952   2.579  -5.187  1.00 50.55     0.059 A 
HETATM   15  C12   D T 502       9.841   1.988  -6.453  1.00 64.03     0.013 A 
HETATM   16 CL15   D T 502      11.487   2.640  -4.411  1.00 39.89    -0.082 Cl
HETATM   17  C13   D T 502       8.590   1.967  -7.084  1.00 34.58     0.026 A 
ENDBRANCH   1  10
TORSDOF 2
