REMARK  2 active torsions:
REMARK  status: ('A' for Active; 'I' for Inactive)
REMARK    1  A    between atoms: C5_4  and  O7_13 
REMARK    2  A    between atoms: C8_10  and  O7_13 
ROOT
HETATM    1  O7    D T 502       7.475   1.858  -6.360  1.00 28.67    -0.304 OA
ENDROOT
BRANCH   1   2
HETATM    2  C5    D T 502       7.464   1.669  -7.699  1.00 33.71     0.125 A 
HETATM    3  C6    D T 502       7.182   0.369  -8.177  1.00 25.06     0.154 A 
HETATM    4  C1    D T 502       7.158   0.155  -9.504  1.00 17.88     0.041 A 
HETATM    5  O17   D T 502       6.961  -0.625  -7.335  1.00 23.24    -0.188 OA
HETATM    6  C2    D T 502       7.377   1.226 -10.329  1.00 31.97     0.060 A 
HETATM    7  C3    D T 502       7.652   2.523  -9.877  1.00 21.44     0.014 A 
HETATM    8 CL14   D T 502       7.289   0.953 -12.061  1.00 33.89    -0.082 Cl
HETATM    9  C4    D T 502       7.692   2.710  -8.545  1.00 26.23     0.028 A 
ENDBRANCH   1   2
BRANCH   1  10
HETATM   10  C8    D T 502       8.670   1.711  -5.652  1.00 57.24     0.111 A 
HETATM   11  C9    D T 502       8.727   2.270  -4.353  1.00 45.39     0.081 A 
HETATM   12  C10   D T 502       9.855   2.165  -3.581  1.00 19.78     0.025 A 
HETATM   13 CL16   D T 502       7.351   3.118  -3.688  1.00 34.00    -0.080 Cl
HETATM   14  C11   D T 502      10.960   1.481  -4.101  1.00 50.55     0.059 A 
HETATM   15  C12   D T 502      10.923   0.913  -5.382  1.00 64.03     0.013 A 
HETATM   16 CL15   D T 502      12.394   1.355  -3.158  1.00 39.89    -0.082 Cl
HETATM   17  C13   D T 502       9.757   1.045  -6.149  1.00 34.58     0.026 A 
ENDBRANCH   1  10
TORSDOF 2
