REMARK  2 active torsions:
REMARK  status: ('A' for Active; 'I' for Inactive)
REMARK    1  A    between atoms: C5_4  and  O7_13 
REMARK    2  A    between atoms: C8_10  and  O7_13 
ROOT
HETATM    1  O7    D T 502      -0.581  16.018  42.444  1.00 28.67    -0.304 OA
ENDROOT
BRANCH   1   2
HETATM    2  C5    D T 502      -1.326  16.182  43.561  1.00 33.71     0.125 A 
HETATM    3  C6    D T 502      -1.385  15.106  44.475  1.00 25.06     0.154 A 
HETATM    4  C1    D T 502      -2.113  15.245  45.597  1.00 17.88     0.041 A 
HETATM    5  O17   D T 502      -0.749  13.975  44.227  1.00 23.24    -0.188 OA
HETATM    6  C2    D T 502      -2.736  16.446  45.811  1.00 31.97     0.060 A 
HETATM    7  C3    D T 502      -2.686  17.527  44.921  1.00 21.44     0.014 A 
HETATM    8 CL14   D T 502      -3.639  16.642  47.303  1.00 33.89    -0.082 Cl
HETATM    9  C4    D T 502      -1.969  17.358  43.795  1.00 26.23     0.028 A 
ENDBRANCH   1   2
BRANCH   1  10
HETATM   10  C8    D T 502      -1.177  15.516  41.285  1.00 57.24     0.111 A 
HETATM   11  C9    D T 502      -0.486  15.708  40.065  1.00 45.39     0.081 A 
HETATM   12  C10   D T 502      -0.989  15.239  38.879  1.00 19.78     0.025 A 
HETATM   13 CL16   D T 502       1.042  16.556  40.032  1.00 34.00    -0.080 Cl
HETATM   14  C11   D T 502      -2.208  14.552  38.895  1.00 50.55     0.059 A 
HETATM   15  C12   D T 502      -2.906  14.343  40.093  1.00 64.03     0.013 A 
HETATM   16 CL15   D T 502      -2.870  13.973  37.416  1.00 39.89    -0.082 Cl
HETATM   17  C13   D T 502      -2.368  14.842  41.287  1.00 34.58     0.026 A 
ENDBRANCH   1  10
TORSDOF 2
