REMARK  2 active torsions:
REMARK  status: ('A' for Active; 'I' for Inactive)
REMARK    1  A    between atoms: C5_4  and  O7_13 
REMARK    2  A    between atoms: C8_10  and  O7_13 
ROOT
HETATM    1  O7    D T 502       7.746   2.134  -6.102  1.00 28.67    -0.304 OA
ENDROOT
BRANCH   1   2
HETATM    2  C5    D T 502       7.738   2.057  -7.453  1.00 33.71     0.125 A 
HETATM    3  C6    D T 502       7.397   0.816  -8.038  1.00 25.06     0.154 A 
HETATM    4  C1    D T 502       7.375   0.714  -9.378  1.00 17.88     0.041 A 
HETATM    5  O17   D T 502       7.118  -0.231  -7.283  1.00 23.24    -0.188 OA
HETATM    6  C2    D T 502       7.654   1.837 -10.111  1.00 31.97     0.060 A 
HETATM    7  C3    D T 502       7.990   3.077  -9.551  1.00 21.44     0.014 A 
HETATM    8 CL14   D T 502       7.570   1.712 -11.859  1.00 33.89    -0.082 Cl
HETATM    9  C4    D T 502       8.026   3.151  -8.208  1.00 26.23     0.028 A 
ENDBRANCH   1   2
BRANCH   1  10
HETATM   10  C8    D T 502       8.925   1.870  -5.403  1.00 57.24     0.111 A 
HETATM   11  C9    D T 502       8.998   2.316  -4.062  1.00 45.39     0.081 A 
HETATM   12  C10   D T 502      10.111   2.090  -3.295  1.00 19.78     0.025 A 
HETATM   13 CL16   D T 502       7.660   3.175  -3.337  1.00 34.00    -0.080 Cl
HETATM   14  C11   D T 502      11.186   1.397  -3.863  1.00 50.55     0.059 A 
HETATM   15  C12   D T 502      11.133   0.938  -5.187  1.00 64.03     0.013 A 
HETATM   16 CL15   D T 502      12.603   1.121  -2.927  1.00 39.89    -0.082 Cl
HETATM   17  C13   D T 502       9.982   1.192  -5.947  1.00 34.58     0.026 A 
ENDBRANCH   1  10
TORSDOF 2
