REMARK  2 active torsions:
REMARK  status: ('A' for Active; 'I' for Inactive)
REMARK    1  A    between atoms: C5_4  and  O7_13 
REMARK    2  A    between atoms: C8_10  and  O7_13 
ROOT
HETATM    1  O7    D T 502       3.020  21.485 299.326  0.75  8.16    -0.304 OA
ENDROOT
BRANCH   1   2
HETATM    2  C5    D T 502       3.032  22.294 298.126  0.75 10.64     0.125 A 
HETATM    3  C6    D T 502       2.777  23.671 298.270  0.75 18.74     0.154 A 
HETATM    4  C1    D T 502       2.777  24.473 297.140  0.75 21.18     0.041 A 
HETATM    5  O17   D T 502       2.539  24.198 299.487  0.75  5.03    -0.188 OA
HETATM    6  C2    D T 502       3.032  23.897 295.931  0.75  4.79     0.060 A 
HETATM    7  C3    D T 502       3.274  22.550 295.769  0.75 38.32     0.014 A 
HETATM    8 CL14   D T 502       3.049  24.892 294.521  0.75 13.77    -0.082 Cl
HETATM    9  C4    D T 502       3.269  21.755 296.929  0.75 41.22     0.028 A 
ENDBRANCH   1   2
BRANCH   1  10
HETATM   10  C8    D T 502       1.817  20.970 299.843  0.75 12.01     0.111 A 
HETATM   11  C9    D T 502       1.910  20.182 300.969  0.75  7.59     0.081 A 
HETATM   12  C10   D T 502       0.785  19.622 301.560  0.75  9.21     0.025 A 
HETATM   13 CL16   D T 502       3.468  19.869 301.680  0.75 22.03    -0.080 Cl
HETATM   14  C11   D T 502      -0.466  19.875 300.985  0.75 25.58     0.059 A 
HETATM   15  C12   D T 502      -0.576  20.671 299.845  0.75 18.79     0.013 A 
HETATM   16 CL15   D T 502      -1.889  19.192 301.693  0.75 35.46    -0.082 Cl
HETATM   17  C13   D T 502       0.589  21.216 299.283  0.75  7.86     0.026 A 
ENDBRANCH   1  10
TORSDOF 2
