REMARK  2 active torsions:
REMARK  status: ('A' for Active; 'I' for Inactive)
REMARK    1  A    between atoms: C5_4  and  O7_13 
REMARK    2  A    between atoms: C8_10  and  O7_13 
ROOT
HETATM    1  O7    D T 502       7.892   2.052  -5.920  0.75  8.16    -0.304 OA
ENDROOT
BRANCH   1   2
HETATM    2  C5    D T 502       7.771   1.958  -7.359  0.75 10.64     0.125 A 
HETATM    3  C6    D T 502       7.557   0.680  -7.910  0.75 18.74     0.154 A 
HETATM    4  C1    D T 502       7.441   0.556  -9.285  0.75 21.18     0.041 A 
HETATM    5  O17   D T 502       7.466  -0.401  -7.111  0.75  5.03    -0.188 OA
HETATM    6  C2    D T 502       7.531   1.679 -10.052  0.75  4.79     0.060 A 
HETATM    7  C3    D T 502       7.750   2.936  -9.532  0.75 38.32     0.014 A 
HETATM    8 CL14   D T 502       7.372   1.534 -11.764  0.75 13.77    -0.082 Cl
HETATM    9  C4    D T 502       7.865   3.040  -8.134  0.75 41.22     0.028 A 
ENDBRANCH   1   2
BRANCH   1  10
HETATM   10  C8    D T 502       9.124   1.826  -5.278  0.75 12.01     0.111 A 
HETATM   11  C9    D T 502       9.148   1.972  -3.909  0.75  7.59     0.081 A 
HETATM   12  C10   D T 502      10.312   1.775  -3.177  0.75  9.21     0.025 A 
HETATM   13 CL16   D T 502       7.695   2.417  -3.060  0.75 22.03    -0.080 Cl
HETATM   14  C11   D T 502      11.479   1.418  -3.863  0.75 25.58     0.059 A 
HETATM   15  C12   D T 502      11.469   1.266  -5.249  0.75 18.79     0.013 A 
HETATM   16 CL15   D T 502      12.947   1.166  -2.984  0.75 35.46    -0.082 Cl
HETATM   17  C13   D T 502      10.269   1.475  -5.947  0.75  7.86     0.026 A 
ENDBRANCH   1  10
TORSDOF 2
