REMARK  2 active torsions:
REMARK  status: ('A' for Active; 'I' for Inactive)
REMARK    1  A    between atoms: C5_4  and  O7_13 
REMARK    2  A    between atoms: C8_10  and  O7_13 
ROOT
HETATM    1  O7    D T 502       6.376   2.495  -6.842  0.75  8.16    -0.304 OA
ENDROOT
BRANCH   1   2
HETATM    2  C5    D T 502       6.124   2.240  -8.244  0.75 10.64     0.125 A 
HETATM    3  C6    D T 502       6.084   0.896  -8.662  0.75 18.74     0.154 A 
HETATM    4  C1    D T 502       5.849   0.618  -9.999  0.75 21.18     0.041 A 
HETATM    5  O17   D T 502       6.270  -0.101  -7.775  0.75  5.03    -0.188 OA
HETATM    6  C2    D T 502       5.657   1.659 -10.858  0.75  4.79     0.060 A 
HETATM    7  C3    D T 502       5.702   2.981 -10.470  0.75 38.32     0.014 A 
HETATM    8 CL14   D T 502       5.348   1.320 -12.522  0.75 13.77    -0.082 Cl
HETATM    9  C4    D T 502       5.942   3.240  -9.109  0.75 41.22     0.028 A 
ENDBRANCH   1   2
BRANCH   1  10
HETATM   10  C8    D T 502       7.688   2.543  -6.337  0.75 12.01     0.111 A 
HETATM   11  C9    D T 502       7.830   2.827  -4.997  0.75  7.59     0.081 A 
HETATM   12  C10   D T 502       9.080   2.900  -4.396  0.75  9.21     0.025 A 
HETATM   13 CL16   D T 502       6.417   3.104  -4.017  0.75 22.03    -0.080 Cl
HETATM   14  C11   D T 502      10.213   2.678  -5.187  0.75 25.58     0.059 A 
HETATM   15  C12   D T 502      10.086   2.389  -6.546  0.75 18.79     0.013 A 
HETATM   16 CL15   D T 502      11.787   2.763  -4.474  0.75 35.46    -0.082 Cl
HETATM   17  C13   D T 502       8.802   2.325  -7.108  0.75  7.86     0.026 A 
ENDBRANCH   1  10
TORSDOF 2
