REMARK  2 active torsions:
REMARK  status: ('A' for Active; 'I' for Inactive)
REMARK    1  A    between atoms: C5_4  and  O7_13 
REMARK    2  A    between atoms: C8_10  and  O7_13 
ROOT
HETATM    1  O7    D T 502       7.628   1.814  -6.200  0.75  8.16    -0.304 OA
ENDROOT
BRANCH   1   2
HETATM    2  C5    D T 502       7.499   1.595  -7.625  0.75 10.64     0.125 A 
HETATM    3  C6    D T 502       7.346   0.267  -8.065  0.75 18.74     0.154 A 
HETATM    4  C1    D T 502       7.225   0.022  -9.424  0.75 21.18     0.041 A 
HETATM    5  O17   D T 502       7.317  -0.748  -7.179  0.75  5.03    -0.188 OA
HETATM    6  C2    D T 502       7.251   1.081 -10.282  0.75  4.79     0.060 A 
HETATM    7  C3    D T 502       7.409   2.387  -9.871  0.75 38.32     0.014 A 
HETATM    8 CL14   D T 502       7.085   0.786 -11.975  0.75 13.77    -0.082 Cl
HETATM    9  C4    D T 502       7.531   2.611  -8.488  0.75 41.22     0.028 A 
ENDBRANCH   1   2
BRANCH   1  10
HETATM   10  C8    D T 502       8.875   1.704  -5.558  0.75 12.01     0.111 A 
HETATM   11  C9    D T 502       8.904   1.965  -4.206  0.75  7.59     0.081 A 
HETATM   12  C10   D T 502      10.082   1.888  -3.475  0.75  9.21     0.025 A 
HETATM   13 CL16   D T 502       7.437   2.406  -3.378  0.75 22.03    -0.080 Cl
HETATM   14  C11   D T 502      11.260   1.534  -4.144  0.75 25.58     0.059 A 
HETATM   15  C12   D T 502      11.246   1.267  -5.513  0.75 18.79     0.013 A 
HETATM   16 CL15   D T 502      12.747   1.430  -3.266  0.75 35.46    -0.082 Cl
HETATM   17  C13   D T 502      10.031   1.357  -6.210  0.75  7.86     0.026 A 
ENDBRANCH   1  10
TORSDOF 2
