REMARK  6 active torsions:
REMARK  status: ('A' for Active; 'I' for Inactive)
REMARK    1  A    between atoms: N6_6  and  O7_7 
REMARK    2  A    between atoms: O7_7  and  C8_8 
REMARK    3  A    between atoms: C8_8  and  C9_9 
REMARK    4  A    between atoms: C9_9  and  C10_10 
REMARK    5  A    between atoms: C10_10  and  O11_11 
REMARK    6  A    between atoms: O11_11  and  C12_12 
ROOT
HETATM    1  C8    D T 609     -21.344   0.830  14.896  1.00 42.96     0.177 C 
ENDROOT
BRANCH   1   2
HETATM    2  O7    D T 609     -20.712   1.068  13.541  1.00 45.57    -0.242 OA
BRANCH   2   3
HETATM    3  N6    D T 609     -19.262   0.861  13.322  1.00 35.78    -0.046 N 
HETATM    4  C1    D T 609     -18.911   0.438  11.916  1.00 32.37     0.209 C 
HETATM    5  N2    D T 609     -17.459   0.128  11.779  1.00 31.22    -0.064 NA
HETATM    6  CM1   D T 609     -19.747  -0.793  11.533  1.00 29.06     0.051 C 
HETATM    7  CM2   D T 609     -19.277   1.582  10.945  1.00 32.53     0.051 C 
HETATM    8  C3    D T 609     -16.565   0.573  12.672  1.00 33.38     0.781 C 
HETATM    9  N4    D T 609     -16.963   1.316  13.746  1.00 32.85     0.137 NA
HETATM   10  NH1   D T 609     -15.262   0.287  12.500  1.00 33.22     0.062 N 
HETATM   11  C5    D T 609     -18.280   1.467  14.079  1.00 34.53     0.785 C 
HETATM   12  NH2   D T 609     -18.591   2.196  15.124  1.00 32.63     0.063 N 
ENDBRANCH   2   3
ENDBRANCH   1   2
BRANCH   1  13
HETATM   13  C9    D T 609     -22.811   1.437  14.798  1.00 41.72     0.068 C 
BRANCH  13  14
HETATM   14  C10   D T 609     -23.465   0.918  13.427  1.00 44.58     0.151 C 
BRANCH  14  15
HETATM   15  O11   D T 609     -23.436  -0.565  13.441  1.00 45.50    -0.334 OA
BRANCH  15  16
HETATM   16  C12   D T 609     -24.018  -1.241  12.306  1.00 41.06     0.084 A 
HETATM   17  C13   D T 609     -24.052  -2.702  12.326  1.00 38.83     0.059 A 
HETATM   18  C14   D T 609     -24.592  -3.443  11.223  1.00 39.01     0.078 A 
HETATM   19 CL1    D T 609     -23.428  -3.558  13.689  1.00 34.26    -0.085 Cl
HETATM   20  C15   D T 609     -25.108  -2.755  10.055  1.00 39.27     0.048 A 
HETATM   21  C16   D T 609     -25.088  -1.279  10.014  1.00 40.25     0.049 A 
HETATM   22 CL2    D T 609     -25.735  -3.714   8.709  1.00 32.41    -0.086 Cl
HETATM   23  C17   D T 609     -24.547  -0.531  11.146  1.00 40.73     0.090 A 
HETATM   24 CL3    D T 609     -25.707  -0.384   8.605  1.00 40.57    -0.086 Cl
ENDBRANCH  15  16
ENDBRANCH  14  15
ENDBRANCH  13  14
ENDBRANCH   1  13
TORSDOF 6
