REMARK  6 active torsions:
REMARK  status: ('A' for Active; 'I' for Inactive)
REMARK    1  A    between atoms: N6_6  and  O7_7 
REMARK    2  A    between atoms: O7_7  and  C8_8 
REMARK    3  A    between atoms: C8_8  and  C9_9 
REMARK    4  A    between atoms: C9_9  and  C10_10 
REMARK    5  A    between atoms: C10_10  and  O11_11 
REMARK    6  A    between atoms: O11_11  and  C12_12 
ROOT
HETATM    1  C8    D T 609     -22.481  -8.891  13.552  1.00 42.96     0.177 C 
ENDROOT
BRANCH   1   2
HETATM    2  O7    D T 609     -21.739  -9.042  12.241  1.00 45.57    -0.242 OA
BRANCH   2   3
HETATM    3  N6    D T 609     -20.831  -7.982  11.744  1.00 35.78    -0.046 N 
HETATM    4  C1    D T 609     -19.688  -8.500  10.906  1.00 32.37     0.209 C 
HETATM    5  N2    D T 609     -18.740  -7.411  10.532  1.00 31.22    -0.064 NA
HETATM    6  CM1   D T 609     -18.944  -9.597  11.684  1.00 29.06     0.051 C 
HETATM    7  CM2   D T 609     -20.260  -9.136   9.620  1.00 32.53     0.051 C 
HETATM    8  C3    D T 609     -19.102  -6.124  10.589  1.00 33.38     0.781 C 
HETATM    9  N4    D T 609     -20.352  -5.769  11.007  1.00 32.85     0.137 NA
HETATM   10  NH1   D T 609     -18.222  -5.174  10.224  1.00 33.22     0.062 N 
HETATM   11  C5    D T 609     -21.212  -6.666  11.575  1.00 34.53     0.785 C 
HETATM   12  NH2   D T 609     -22.399  -6.256  11.954  1.00 32.63     0.063 N 
ENDBRANCH   2   3
ENDBRANCH   1   2
BRANCH   1  13
HETATM   13  C9    D T 609     -23.550 -10.068  13.578  1.00 41.72     0.068 C 
BRANCH  13  14
HETATM   14  C10   D T 609     -22.798 -11.422  13.152  1.00 44.58     0.151 C 
BRANCH  14  15
HETATM   15  O11   D T 609     -21.666 -11.627  14.086  1.00 45.50    -0.334 OA
BRANCH  15  16
HETATM   16  C12   D T 609     -20.875 -12.820  13.903  1.00 41.06     0.084 A 
HETATM   17  C13   D T 609     -19.790 -13.072  14.849  1.00 38.83     0.059 A 
HETATM   18  C14   D T 609     -18.946 -14.224  14.715  1.00 39.01     0.078 A 
HETATM   19 CL1    D T 609     -19.506 -11.968  16.146  1.00 34.26    -0.085 Cl
HETATM   20  C15   D T 609     -19.145 -15.161  13.626  1.00 39.27     0.048 A 
HETATM   21  C16   D T 609     -20.238 -14.931  12.660  1.00 40.25     0.049 A 
HETATM   22 CL2    D T 609     -18.059 -16.548  13.487  1.00 32.41    -0.086 Cl
HETATM   23  C17   D T 609     -21.100 -13.761  12.811  1.00 40.73     0.090 A 
HETATM   24 CL3    D T 609     -20.527 -16.048  11.305  1.00 40.57    -0.086 Cl
ENDBRANCH  15  16
ENDBRANCH  14  15
ENDBRANCH  13  14
ENDBRANCH   1  13
TORSDOF 6
