REMARK  6 active torsions:
REMARK  status: ('A' for Active; 'I' for Inactive)
REMARK    1  A    between atoms: N6_6  and  O7_7 
REMARK    2  A    between atoms: O7_7  and  C8_8 
REMARK    3  A    between atoms: C8_8  and  C9_9 
REMARK    4  A    between atoms: C9_9  and  C10_10 
REMARK    5  A    between atoms: C10_10  and  O11_11 
REMARK    6  A    between atoms: O11_11  and  C12_12 
ROOT
HETATM    1  C8    D T 609     -21.000   0.706  14.942  1.00 42.96     0.177 C 
ENDROOT
BRANCH   1   2
HETATM    2  O7    D T 609     -20.368   0.945  13.587  1.00 45.57    -0.242 OA
BRANCH   2   3
HETATM    3  N6    D T 609     -18.919   0.730  13.366  1.00 35.78    -0.046 N 
HETATM    4  C1    D T 609     -18.571   0.309  11.959  1.00 32.37     0.209 C 
HETATM    5  N2    D T 609     -17.121  -0.009  11.820  1.00 31.22    -0.064 NA
HETATM    6  CM1   D T 609     -19.416  -0.916  11.572  1.00 29.06     0.051 C 
HETATM    7  CM2   D T 609     -18.932   1.458  10.992  1.00 32.53     0.051 C 
HETATM    8  C3    D T 609     -16.224   0.428  12.713  1.00 33.38     0.781 C 
HETATM    9  N4    D T 609     -16.617   1.170  13.790  1.00 32.85     0.137 NA
HETATM   10  NH1   D T 609     -14.923   0.134  12.539  1.00 33.22     0.062 N 
HETATM   11  C5    D T 609     -17.932   1.327  14.124  1.00 34.53     0.785 C 
HETATM   12  NH2   D T 609     -18.238   2.055  15.172  1.00 32.63     0.063 N 
ENDBRANCH   2   3
ENDBRANCH   1   2
BRANCH   1  13
HETATM   13  C9    D T 609     -22.463   1.322  14.847  1.00 41.72     0.068 C 
BRANCH  13  14
HETATM   14  C10   D T 609     -23.122   0.811  13.474  1.00 44.58     0.151 C 
BRANCH  14  15
HETATM   15  O11   D T 609     -23.101  -0.671  13.484  1.00 45.50    -0.334 OA
BRANCH  15  16
HETATM   16  C12   D T 609     -23.688  -1.340  12.347  1.00 41.06     0.084 A 
HETATM   17  C13   D T 609     -23.731  -2.801  12.362  1.00 38.83     0.059 A 
HETATM   18  C14   D T 609     -24.276  -3.535  11.258  1.00 39.01     0.078 A 
HETATM   19 CL1    D T 609     -23.111  -3.665  13.722  1.00 34.26    -0.085 Cl
HETATM   20  C15   D T 609     -24.788  -2.841  10.092  1.00 39.27     0.048 A 
HETATM   21  C16   D T 609     -24.760  -1.365  10.055  1.00 40.25     0.049 A 
HETATM   22 CL2    D T 609     -25.422  -3.792   8.744  1.00 32.41    -0.086 Cl
HETATM   23  C17   D T 609     -24.213  -0.624  11.190  1.00 40.73     0.090 A 
HETATM   24 CL3    D T 609     -25.375  -0.461   8.650  1.00 40.57    -0.086 Cl
ENDBRANCH  15  16
ENDBRANCH  14  15
ENDBRANCH  13  14
ENDBRANCH   1  13
TORSDOF 6
