REMARK  6 active torsions:
REMARK  status: ('A' for Active; 'I' for Inactive)
REMARK    1  A    between atoms: N6_6  and  O7_7 
REMARK    2  A    between atoms: O7_7  and  C8_8 
REMARK    3  A    between atoms: C8_8  and  C9_9 
REMARK    4  A    between atoms: C9_9  and  C10_10 
REMARK    5  A    between atoms: C10_10  and  O11_11 
REMARK    6  A    between atoms: O11_11  and  C12_12 
ROOT
HETATM    1  C8    D T 609     -21.588   1.115  14.583  1.00 42.96     0.177 C 
ENDROOT
BRANCH   1   2
HETATM    2  O7    D T 609     -20.931   1.373  13.244  1.00 45.57    -0.242 OA
BRANCH   2   3
HETATM    3  N6    D T 609     -19.483   1.132  13.039  1.00 35.78    -0.046 N 
HETATM    4  C1    D T 609     -19.123   0.738  11.627  1.00 32.37     0.209 C 
HETATM    5  N2    D T 609     -17.678   0.393  11.502  1.00 31.22    -0.064 NA
HETATM    6  CM1   D T 609     -19.987  -0.458  11.198  1.00 29.06     0.051 C 
HETATM    7  CM2   D T 609     -19.445   1.918  10.683  1.00 32.53     0.051 C 
HETATM    8  C3    D T 609     -16.786   0.788  12.419  1.00 33.38     0.781 C 
HETATM    9  N4    D T 609     -17.179   1.512  13.507  1.00 32.85     0.137 NA
HETATM   10  NH1   D T 609     -15.489   0.471  12.257  1.00 33.22     0.062 N 
HETATM   11  C5    D T 609     -18.496   1.690  13.826  1.00 34.53     0.785 C 
HETATM   12  NH2   D T 609     -18.803   2.399  14.887  1.00 32.63     0.063 N 
ENDBRANCH   2   3
ENDBRANCH   1   2
BRANCH   1  13
HETATM   13  C9    D T 609     -23.037   1.765  14.482  1.00 41.72     0.068 C 
BRANCH  13  14
HETATM   14  C10   D T 609     -23.685   1.301  13.087  1.00 44.58     0.151 C 
BRANCH  14  15
HETATM   15  O11   D T 609     -23.695  -0.181  13.061  1.00 45.50    -0.334 OA
BRANCH  15  16
HETATM   16  C12   D T 609     -24.279  -0.809  11.900  1.00 41.06     0.084 A 
HETATM   17  C13   D T 609     -24.353  -2.269  11.878  1.00 38.83     0.059 A 
HETATM   18  C14   D T 609     -24.897  -2.964  10.748  1.00 39.01     0.078 A 
HETATM   19 CL1    D T 609     -23.772  -3.179  13.225  1.00 34.26    -0.085 Cl
HETATM   20  C15   D T 609     -25.376  -2.231   9.592  1.00 39.27     0.048 A 
HETATM   21  C16   D T 609     -25.317  -0.755   9.592  1.00 40.25     0.049 A 
HETATM   22 CL2    D T 609     -26.009  -3.136   8.212  1.00 32.41    -0.086 Cl
HETATM   23  C17   D T 609     -24.771  -0.055  10.753  1.00 40.73     0.090 A 
HETATM   24 CL3    D T 609     -25.890   0.194   8.200  1.00 40.57    -0.086 Cl
ENDBRANCH  15  16
ENDBRANCH  14  15
ENDBRANCH  13  14
ENDBRANCH   1  13
TORSDOF 6
