REMARK  6 active torsions:
REMARK  status: ('A' for Active; 'I' for Inactive)
REMARK    1  A    between atoms: N6_6  and  O7_7 
REMARK    2  A    between atoms: O7_7  and  C8_8 
REMARK    3  A    between atoms: C8_8  and  C9_9 
REMARK    4  A    between atoms: C9_9  and  C10_10 
REMARK    5  A    between atoms: C10_10  and  O11_11 
REMARK    6  A    between atoms: O11_11  and  C12_12 
ROOT
HETATM    1  C8    D T 609     -21.338   0.209  14.878  1.00 42.96     0.177 C 
ENDROOT
BRANCH   1   2
HETATM    2  O7    D T 609     -20.709   0.444  13.521  1.00 45.57    -0.242 OA
BRANCH   2   3
HETATM    3  N6    D T 609     -19.250   0.291  13.312  1.00 35.78    -0.046 N 
HETATM    4  C1    D T 609     -18.875  -0.147  11.917  1.00 32.37     0.209 C 
HETATM    5  N2    D T 609     -17.411  -0.401  11.793  1.00 31.22    -0.064 NA
HETATM    6  CM1   D T 609     -19.660  -1.419  11.556  1.00 29.06     0.051 C 
HETATM    7  CM2   D T 609     -19.283   0.960  10.921  1.00 32.53     0.051 C 
HETATM    8  C3    D T 609     -16.541   0.098  12.680  1.00 33.38     0.781 C 
HETATM    9  N4    D T 609     -16.974   0.847  13.736  1.00 32.85     0.137 NA
HETATM   10  NH1   D T 609     -15.227  -0.139  12.520  1.00 33.22     0.062 N 
HETATM   11  C5    D T 609     -18.297   0.952  14.060  1.00 34.53     0.785 C 
HETATM   12  NH2   D T 609     -18.643   1.689  15.088  1.00 32.63     0.063 N 
ENDBRANCH   2   3
ENDBRANCH   1   2
BRANCH   1  13
HETATM   13  C9    D T 609     -22.827   0.754  14.760  1.00 41.72     0.068 C 
BRANCH  13  14
HETATM   14  C10   D T 609     -23.453   0.180  13.398  1.00 44.58     0.151 C 
BRANCH  14  15
HETATM   15  O11   D T 609     -23.364  -1.299  13.443  1.00 45.50    -0.334 OA
BRANCH  15  16
HETATM   16  C12   D T 609     -23.913  -2.022  12.321  1.00 41.06     0.087 A 
HETATM   17  C13   D T 609     -23.889  -3.482  12.371  1.00 38.83     0.077 A 
HETATM   18  C14   D T 609     -24.393  -4.267  11.282  1.00 39.01     0.025 A 
HETATM   19 CL1    D T 609     -23.237  -4.284  13.754  1.00 34.26    -0.081 Cl
HETATM   20  C15   D T 609     -24.929  -3.626  10.097  1.00 39.27     0.066 A 
HETATM   21  C16   D T 609     -24.969  -2.151  10.025  1.00 40.25     0.052 A 
HETATM   22 CL2    D T 609     -25.510  -4.637   8.770  1.00 32.41    -0.082 Cl
HETATM   23  C17   D T 609     -24.464  -1.359  11.144  1.00 40.73     0.091 A 
HETATM   24 CL3    D T 609     -25.616  -1.311   8.595  1.00 40.57    -0.086 Cl
ENDBRANCH  15  16
ENDBRANCH  14  15
ENDBRANCH  13  14
ENDBRANCH   1  13
TORSDOF 6
