REMARK  6 active torsions:
REMARK  status: ('A' for Active; 'I' for Inactive)
REMARK    1  A    between atoms: N6_6  and  O7_7 
REMARK    2  A    between atoms: O7_7  and  C8_8 
REMARK    3  A    between atoms: C8_8  and  C9_9 
REMARK    4  A    between atoms: C9_9  and  C10_10 
REMARK    5  A    between atoms: C10_10  and  O11_11 
REMARK    6  A    between atoms: O11_11  and  C12_12 
ROOT
HETATM    1  C8    D T 709     -22.353  -9.047  13.501  1.00 64.95     0.177 C 
ENDROOT
BRANCH   1   2
HETATM    2  O7    D T 709     -21.672  -9.149  12.180  1.00 65.78    -0.242 OA
BRANCH   2   3
HETATM    3  N6    D T 709     -20.823  -8.051  11.714  1.00 60.25    -0.046 N 
HETATM    4  C1    D T 709     -19.735  -8.532  10.843  1.00 59.54     0.209 C 
HETATM    5  N2    D T 709     -18.807  -7.448  10.449  1.00 58.34    -0.064 NA
HETATM    6  CM1   D T 709     -18.983  -9.638  11.590  1.00 58.30     0.051 C 
HETATM    7  CM2   D T 709     -20.349  -9.144   9.561  1.00 58.50     0.051 C 
HETATM    8  C3    D T 709     -19.184  -6.174  10.474  1.00 57.46     0.781 C 
HETATM    9  N4    D T 709     -20.437  -5.817  10.865  1.00 59.05     0.137 NA
HETATM   10  NH1   D T 709     -18.334  -5.249  10.122  1.00 57.08     0.062 N 
HETATM   11  C5    D T 709     -21.276  -6.726  11.485  1.00 59.54     0.785 C 
HETATM   12  NH2   D T 709     -22.485  -6.334  11.835  1.00 59.54     0.063 N 
ENDBRANCH   2   3
ENDBRANCH   1   2
BRANCH   1  13
HETATM   13  C9    D T 709     -23.408 -10.172  13.514  1.00 65.45     0.068 C 
BRANCH  13  14
HETATM   14  C10   D T 709     -22.737 -11.586  13.056  1.00 66.22     0.151 C 
BRANCH  14  15
HETATM   15  O11   D T 709     -21.552 -11.920  13.985  1.00 65.87    -0.334 OA
BRANCH  15  16
HETATM   16  C12   D T 709     -20.906 -13.189  13.716  1.00 64.85     0.087 A 
HETATM   17  C13   D T 709     -19.760 -13.609  14.546  1.00 64.39     0.077 A 
HETATM   18  C14   D T 709     -19.070 -14.834  14.267  1.00 65.61     0.025 A 
HETATM   19 CL1    D T 709     -19.191 -12.590  15.887  1.00 64.58    -0.081 Cl
HETATM   20  C15   D T 709     -19.477 -15.702  13.182  1.00 65.79     0.066 A 
HETATM   21  C16   D T 709     -20.654 -15.323  12.325  1.00 65.66     0.052 A 
HETATM   22 CL2    D T 709     -18.552 -17.215  12.878  1.00 67.31    -0.082 Cl
HETATM   23  C17   D T 709     -21.367 -14.068  12.599  1.00 65.12     0.091 A 
HETATM   24 CL3    D T 709     -21.185 -16.376  10.995  1.00 64.94    -0.086 Cl
ENDBRANCH  15  16
ENDBRANCH  14  15
ENDBRANCH  13  14
ENDBRANCH   1  13
TORSDOF 6
