REMARK  20 active torsions:
REMARK  status: ('A' for Active; 'I' for Inactive)
REMARK    1  A    between atoms: C1_1  and  C21_25 
REMARK    2  A    between atoms: N1_14  and  C13_15 
REMARK    3  A    between atoms: C13_15  and  C14_16 
REMARK    4  A    between atoms: C14_16  and  C15_17 
REMARK    5  A    between atoms: C15_17  and  N2_18 
REMARK    6  A    between atoms: C1_29  and  C21_53 
REMARK    7  A    between atoms: N1_42  and  C13_43 
REMARK    8  A    between atoms: C13_43  and  C14_44 
REMARK    9  A    between atoms: C14_44  and  C15_45 
REMARK   10  A    between atoms: C15_45  and  N2_46 
REMARK   11  A    between atoms: C1_57  and  C21_81 
REMARK   12  A    between atoms: N1_70  and  C13_71 
REMARK   13  A    between atoms: C13_71  and  C14_72 
REMARK   14  A    between atoms: C14_72  and  C15_73 
REMARK   15  A    between atoms: C15_73  and  N2_74 
REMARK   16  A    between atoms: C1_85  and  C21_109 
REMARK   17  A    between atoms: N1_98  and  C13_99 
REMARK   18  A    between atoms: C13_99  and  C14_100 
REMARK   19  A    between atoms: C14_100  and  C15_101 
REMARK   20  A    between atoms: C15_101  and  N2_102 
ROOT
HETATM    1  C1    D T 153      21.564   6.852 -16.868  0.88 20.05     0.073 A 
HETATM    2  C2    D T 153      20.721   6.682 -15.809  0.88 17.33     0.004 A 
HETATM    3  C3    D T 153      21.115   5.967 -14.721  0.88 18.19     0.008 A 
HETATM    4  C4    D T 153      22.392   5.403 -14.699  0.88 17.49     0.045 A 
HETATM    5  C5    D T 153      23.251   5.582 -15.790  0.88 18.05     0.066 A 
HETATM    6  C6    D T 153      22.813   6.321 -16.883  0.88 18.08     0.022 A 
HETATM    7  S     D T 153      22.866   4.505 -13.360  0.88 21.23    -0.084 SA
HETATM    8  C7    D T 153      24.595   4.669 -13.403  0.88 18.98     0.045 A 
HETATM    9  C8    D T 153      25.318   4.543 -12.213  0.88 19.75     0.008 A 
HETATM   10  C9    D T 153      26.688   4.629 -12.245  0.88 16.42     0.001 A 
HETATM   11  C10   D T 153      27.363   4.838 -13.428  0.88 17.64     0.002 A 
HETATM   12  C11   D T 153      26.685   4.969 -14.613  0.88 19.01     0.018 A 
HETATM   13  C12   D T 153      25.285   4.887 -14.616  0.88 20.56     0.066 A 
HETATM   14  N1    D T 153      24.533   5.019 -15.794  0.88 21.31    -0.327 N 
ENDROOT
BRANCH  14  15
HETATM   15  C13   D T 153      25.250   4.882 -17.038  0.88 23.28     0.108 C 
BRANCH  15  16
HETATM   16  C14   D T 153      25.417   3.395 -17.140  0.88 26.42     0.060 C 
BRANCH  16  17
HETATM   17  C15   D T 153      25.924   2.987 -18.490  0.88 32.52     0.252 C 
BRANCH  17  18
HETATM   18  N2    D T 153      26.061   1.539 -18.577  0.88 36.85     0.141 N 
HETATM   19  C16   D T 153      26.738   1.284 -19.844  0.88 39.93     0.285 C 
HETATM   20  C17   D T 153      27.405  -0.079 -19.870  0.88 43.77     0.285 C 
HETATM   21  N3    D T 153      28.436  -0.209 -18.839  0.88 47.03     0.143 N 
HETATM   22  C18   D T 153      28.337   0.875 -17.861  0.88 45.21     0.285 C 
HETATM   23  C20   D T 153      28.159  -1.452 -18.118  0.88 50.19     0.285 C 
HETATM   24  C19   D T 153      26.900   1.137 -17.447  0.88 40.84     0.285 C 
ENDBRANCH  17  18
ENDBRANCH  16  17
ENDBRANCH  15  16
ENDBRANCH  14  15
BRANCH   1  25
HETATM   25  C21   D T 153      21.142   7.653 -18.087  0.88 23.84     0.419 C 
HETATM   26  F1    D T 153      20.128   8.376 -17.900  0.88 26.52    -0.166 F 
HETATM   27  F2    D T 153      20.870   7.043 -19.161  0.88 25.60    -0.166 F 
HETATM   28  F3    D T 153      21.976   8.488 -18.551  0.88 23.07    -0.166 F 
ENDBRANCH   1  25
TORSDOF 20
