REMARK  2 active torsions:
REMARK  status: ('A' for Active; 'I' for Inactive)
REMARK    1  A    between atoms: C5_4  and  O7_13 
REMARK    2  A    between atoms: C8_10  and  O7_13 
ROOT
HETATM    1  O7    D T 600       7.867   1.974  -6.054  1.00 18.03    -0.309 OA
ENDROOT
BRANCH   1   2
HETATM    2  C5    D T 600       7.779   1.791  -7.444  1.00 18.33     0.099 A 
HETATM    3  C6    D T 600       7.402   0.500  -8.064  1.00 17.53     0.132 A 
HETATM    4  C1    D T 600       7.330   0.355  -9.517  1.00 16.53     0.089 A 
HETATM    5  O17   D T 600       7.111  -0.600  -7.286  1.00 20.49    -0.193 OA
HETATM    6  C2    D T 600       7.637   1.507 -10.339  1.00 14.58     0.020 A 
HETATM    7  C3    D T 600       8.009   2.782  -9.734  1.00 14.14     0.041 A 
HETATM    8 CL14   D T 600       7.569   1.419 -11.999  1.00  1.00    -0.091 Cl
HETATM    9  C4    D T 600       8.078   2.921  -8.287  1.00 16.13     0.059 A 
ENDBRANCH   1   2
BRANCH   1  10
HETATM   10  C8    D T 600       9.074   1.715  -5.305  1.00 16.10     0.106 A 
HETATM   11  C9    D T 600       8.995   1.995  -3.781  1.00 14.15     0.063 A 
HETATM   12  C10   D T 600      10.170   1.775  -2.954  1.00 14.71     0.078 A 
HETATM   13 CL16   D T 600       7.590   2.555  -3.069  1.00  1.00    -0.085 Cl
HETATM   14  C11   D T 600      11.421   1.275  -3.645  1.00 14.35     0.041 A 
HETATM   15  C12   D T 600      11.419   1.037  -5.030  1.00 18.52     0.009 A 
HETATM   16 CL15   D T 600      12.774   1.040  -2.671  1.00  1.63    -0.087 Cl
HETATM   17  C13   D T 600      10.358   1.223  -5.857  1.00 15.99     0.026 A 
ENDBRANCH   1  10
TORSDOF 2
