REMARK  2 active torsions:
REMARK  status: ('A' for Active; 'I' for Inactive)
REMARK    1  A    between atoms: C5_4  and  O7_13 
REMARK    2  A    between atoms: C8_10  and  O7_13 
ROOT
HETATM    1  O7    D T 600       6.330   2.395  -7.006  1.00 18.03    -0.309 OA
ENDROOT
BRANCH   1   2
HETATM    2  C5    D T 600       6.125   2.061  -8.356  1.00 18.33     0.099 A 
HETATM    3  C6    D T 600       5.921   0.670  -8.819  1.00 17.53     0.132 A 
HETATM    4  C1    D T 600       5.719   0.370 -10.235  1.00 16.53     0.089 A 
HETATM    5  O17   D T 600       5.918  -0.380  -7.925  1.00 20.49    -0.193 OA
HETATM    6  C2    D T 600       5.723   1.468 -11.178  1.00 14.58     0.020 A 
HETATM    7  C3    D T 600       5.924   2.842 -10.728  1.00 14.14     0.041 A 
HETATM    8 CL14   D T 600       5.492   1.204 -12.805  1.00  1.00    -0.091 Cl
HETATM    9  C4    D T 600       6.124   3.135  -9.317  1.00 16.13     0.059 A 
ENDBRANCH   1   2
BRANCH   1  10
HETATM   10  C8    D T 600       7.638   2.420  -6.396  1.00 16.10     0.106 A 
HETATM   11  C9    D T 600       7.676   2.834  -4.900  1.00 14.15     0.063 A 
HETATM   12  C10   D T 600       8.953   2.899  -4.212  1.00 14.71     0.078 A 
HETATM   13 CL16   D T 600       6.279   3.218  -4.067  1.00  1.00    -0.085 Cl
HETATM   14  C11   D T 600      10.192   2.550  -5.010  1.00 14.35     0.041 A 
HETATM   15  C12   D T 600      10.082   2.177  -6.361  1.00 18.52     0.009 A 
HETATM   16 CL15   D T 600      11.662   2.645  -4.197  1.00  1.63    -0.087 Cl
HETATM   17  C13   D T 600       8.922   2.098  -7.062  1.00 15.99     0.026 A 
ENDBRANCH   1  10
TORSDOF 2
