REMARK  2 active torsions:
REMARK  status: ('A' for Active; 'I' for Inactive)
REMARK    1  A    between atoms: C5_4  and  O7_13 
REMARK    2  A    between atoms: C8_10  and  O7_13 
ROOT
HETATM    1  O7    D T 600       7.586   1.722  -6.309  1.00 18.03    -0.309 OA
ENDROOT
BRANCH   1   2
HETATM    2  C5    D T 600       7.498   1.421  -7.679  1.00 18.33     0.099 A 
HETATM    3  C6    D T 600       7.182   0.067  -8.188  1.00 17.53     0.132 A 
HETATM    4  C1    D T 600       7.108  -0.200  -9.623  1.00 16.53     0.089 A 
HETATM    5  O17   D T 600       6.952  -0.979  -7.319  1.00 20.49    -0.193 OA
HETATM    6  C2    D T 600       7.352   0.894 -10.539  1.00 14.58     0.020 A 
HETATM    7  C3    D T 600       7.664   2.231 -10.044  1.00 14.14     0.041 A 
HETATM    8 CL14   D T 600       7.278   0.667 -12.186  1.00  1.00    -0.091 Cl
HETATM    9  C4    D T 600       7.735   2.491  -8.614  1.00 16.13     0.059 A 
ENDBRANCH   1   2
BRANCH   1  10
HETATM   10  C8    D T 600       8.810   1.585  -5.555  1.00 16.10     0.106 A 
HETATM   11  C9    D T 600       8.727   1.984  -4.057  1.00 14.15     0.063 A 
HETATM   12  C10   D T 600       9.916   1.891  -3.228  1.00 14.71     0.078 A 
HETATM   13 CL16   D T 600       7.300   2.531  -3.380  1.00  1.00    -0.085 Cl
HETATM   14  C11   D T 600      11.186   1.398  -3.889  1.00 14.35     0.041 A 
HETATM   15  C12   D T 600      11.187   1.047  -5.250  1.00 18.52     0.009 A 
HETATM   16 CL15   D T 600      12.555   1.311  -2.913  1.00  1.63    -0.087 Cl
HETATM   17  C13   D T 600      10.113   1.113  -6.078  1.00 15.99     0.026 A 
ENDBRANCH   1  10
TORSDOF 2
