REMARK  4 active torsions:
REMARK  status: ('A' for Active; 'I' for Inactive)
REMARK    1  A    between atoms: C5_4  and  O7_13 
REMARK    2  A    between atoms: C8_10  and  O7_13 
REMARK    3  A    between atoms: C5_21  and  O7_30 
REMARK    4  A    between atoms: C8_27  and  O7_30 
ROOT
HETATM    1  O7    D T 400       7.886   1.751  -6.153  1.00 53.30    -0.304 OA
ENDROOT
BRANCH   1   2
HETATM    2  C5    D T 400       7.801   1.665  -7.532  1.00 52.25     0.125 A 
HETATM    3  C6    D T 400       7.517   0.386  -8.123  1.00 52.67     0.154 A 
HETATM    4  C1    D T 400       7.459   0.315  -9.513  1.00 56.55     0.041 A 
HETATM    5  O17   D T 400       7.310  -0.704  -7.387  1.00 49.90    -0.188 OA
HETATM    6  C2    D T 400       7.690   1.458 -10.283  1.00 54.31     0.060 A 
HETATM    7  C3    D T 400       7.966   2.705  -9.689  1.00 52.92     0.014 A 
HETATM    8 CL14   D T 400       7.642   1.304 -12.007  1.00 55.46    -0.082 Cl
HETATM    9  C4    D T 400       8.031   2.785  -8.309  1.00 50.04     0.028 A 
ENDBRANCH   1   2
BRANCH   1  10
HETATM   10  C8    D T 400       9.173   1.748  -5.499  1.00 54.37     0.111 A 
HETATM   11  C9    D T 400       9.202   2.114  -4.111  1.00 54.35     0.081 A 
HETATM   12  C10   D T 400      10.309   2.163  -3.300  1.00 53.50     0.025 A 
HETATM   13 CL16   D T 400       7.714   2.521  -3.397  1.00 64.25    -0.080 Cl
HETATM   14  C11   D T 400      11.550   1.814  -3.896  1.00 57.87     0.059 A 
HETATM   15  C12   D T 400      11.580   1.427  -5.261  1.00 58.16     0.013 A 
HETATM   16 CL15   D T 400      13.049   1.834  -3.042  1.00 56.65    -0.082 Cl
HETATM   17  C13   D T 400      10.400   1.406  -6.072  1.00 55.40     0.026 A 
ENDBRANCH   1  10
TORSDOF 4
