REMARK  4 active torsions:
REMARK  status: ('A' for Active; 'I' for Inactive)
REMARK    1  A    between atoms: C5_4  and  O7_13 
REMARK    2  A    between atoms: C8_10  and  O7_13 
REMARK    3  A    between atoms: C5_21  and  O7_30 
REMARK    4  A    between atoms: C8_27  and  O7_30 
ROOT
HETATM    1  O7    D T 400       6.349   2.132  -7.090  1.00 53.30    -0.304 OA
ENDROOT
BRANCH   1   2
HETATM    2  C5    D T 400       6.131   1.894  -8.436  1.00 52.25     0.125 A 
HETATM    3  C6    D T 400       6.015   0.533  -8.883  1.00 52.67     0.154 A 
HETATM    4  C1    D T 400       5.820   0.314 -10.244  1.00 56.55     0.041 A 
HETATM    5  O17   D T 400       6.084  -0.496  -8.041  1.00 49.90    -0.188 OA
HETATM    6  C2    D T 400       5.761   1.397 -11.127  1.00 54.31     0.060 A 
HETATM    7  C3    D T 400       5.875   2.725 -10.674  1.00 52.92     0.014 A 
HETATM    8 CL14   D T 400       5.554   1.064 -12.813  1.00 55.46    -0.082 Cl
HETATM    9  C4    D T 400       6.075   2.954  -9.324  1.00 50.04     0.028 A 
ENDBRANCH   1   2
BRANCH   1  10
HETATM   10  C8    D T 400       7.680   2.408  -6.603  1.00 54.37     0.111 A 
HETATM   11  C9    D T 400       7.794   2.911  -5.263  1.00 54.35     0.081 A 
HETATM   12  C10   D T 400       8.957   3.224  -4.603  1.00 53.50     0.025 A 
HETATM   13 CL16   D T 400       6.345   3.136  -4.404  1.00 64.25    -0.080 Cl
HETATM   14  C11   D T 400      10.168   3.027  -5.318  1.00 57.87     0.059 A 
HETATM   15  C12   D T 400      10.117   2.515  -6.640  1.00 58.16     0.013 A 
HETATM   16 CL15   D T 400      11.723   3.382  -4.661  1.00 56.65    -0.082 Cl
HETATM   17  C13   D T 400       8.878   2.218  -7.294  1.00 55.40     0.026 A 
ENDBRANCH   1  10
TORSDOF 4
