REMARK  2 active torsions:
REMARK  status: ('A' for Active; 'I' for Inactive)
REMARK    1  A    between atoms: C5_4  and  O7_13 
REMARK    2  A    between atoms: C8_10  and  O7_13 
ROOT
HETATM    1  O7    D T 601       2.538 -17.295  13.152  1.00 22.53    -0.304 OA
ENDROOT
BRANCH   1   2
HETATM    2  C5    D T 601       3.423 -16.692  12.282  1.00 21.09     0.125 A 
HETATM    3  C6    D T 601       4.059 -15.517  12.691  1.00 20.02     0.154 A 
HETATM    4  C1    D T 601       4.954 -14.883  11.852  1.00 18.60     0.041 A 
HETATM    5  O17   D T 601       3.801 -14.990  13.931  1.00 17.91    -0.188 OA
HETATM    6  C2    D T 601       5.212 -15.414  10.602  1.00 21.19     0.060 A 
HETATM    7  C3    D T 601       4.585 -16.596  10.166  1.00 21.69     0.014 A 
HETATM    8 CL14   D T 601       6.345 -14.598   9.543  1.00 22.27    -0.082 Cl
HETATM    9  C4    D T 601       3.685 -17.236  11.013  1.00 21.63     0.028 A 
ENDBRANCH   1   2
BRANCH   1  10
HETATM   10  C8    D T 601       1.183 -17.028  13.003  1.00 23.87     0.111 A 
HETATM   11  C9    D T 601       0.280 -17.747  13.780  1.00 25.62     0.081 A 
HETATM   12  C10   D T 601      -1.077 -17.535  13.677  1.00 25.25     0.025 A 
HETATM   13 CL16   D T 601       0.880 -18.936  14.891  1.00 24.80    -0.080 Cl
HETATM   14  C11   D T 601      -1.557 -16.583  12.782  1.00 28.16     0.059 A 
HETATM   15  C12   D T 601      -0.669 -15.842  11.994  1.00 26.66     0.013 A 
HETATM   16 CL15   D T 601      -3.294 -16.322  12.633  1.00 31.04    -0.082 Cl
HETATM   17  C13   D T 601       0.708 -16.063  12.104  1.00 26.39     0.026 A 
ENDBRANCH   1  10
TORSDOF 2
