REMARK  2 active torsions:
REMARK  status: ('A' for Active; 'I' for Inactive)
REMARK    1  A    between atoms: C5_4  and  O7_13 
REMARK    2  A    between atoms: C8_10  and  O7_13 
ROOT
HETATM    1  O7    D T 601       6.414   2.331  -6.754  1.00 22.53    -0.304 OA
ENDROOT
BRANCH   1   2
HETATM    2  C5    D T 601       6.223   2.130  -8.106  1.00 21.09     0.125 A 
HETATM    3  C6    D T 601       6.089   0.818  -8.569  1.00 20.02     0.154 A 
HETATM    4  C1    D T 601       5.894   0.573  -9.914  1.00 18.60     0.041 A 
HETATM    5  O17   D T 601       6.146  -0.232  -7.689  1.00 17.91    -0.188 OA
HETATM    6  C2    D T 601       5.838   1.632 -10.800  1.00 21.19     0.060 A 
HETATM    7  C3    D T 601       5.970   2.962 -10.360  1.00 21.69     0.014 A 
HETATM    8 CL14   D T 601       5.596   1.309 -12.506  1.00 22.27    -0.082 Cl
HETATM    9  C4    D T 601       6.164   3.209  -9.004  1.00 21.63     0.028 A 
ENDBRANCH   1   2
BRANCH   1  10
HETATM   10  C8    D T 601       7.713   2.499  -6.291  1.00 23.87     0.111 A 
HETATM   11  C9    D T 601       7.896   2.849  -4.957  1.00 25.62     0.081 A 
HETATM   12  C10   D T 601       9.157   3.037  -4.435  1.00 25.25     0.025 A 
HETATM   13 CL16   D T 601       6.508   3.059  -3.939  1.00 24.80    -0.080 Cl
HETATM   14  C11   D T 601      10.270   2.871  -5.254  1.00 28.16     0.059 A 
HETATM   15  C12   D T 601      10.113   2.513  -6.598  1.00 26.66     0.013 A 
HETATM   16 CL15   D T 601      11.885   3.129  -4.596  1.00 31.04    -0.082 Cl
HETATM   17  C13   D T 601       8.829   2.325  -7.121  1.00 26.39     0.026 A 
ENDBRANCH   1  10
TORSDOF 2
