REMARK  2 active torsions:
REMARK  status: ('A' for Active; 'I' for Inactive)
REMARK    1  A    between atoms: C5_4  and  O7_13 
REMARK    2  A    between atoms: C8_10  and  O7_13 
ROOT
HETATM    1  O7    D T 601       7.620   1.676  -6.112  1.00 22.53    -0.304 OA
ENDROOT
BRANCH   1   2
HETATM    2  C5    D T 601       7.552   1.505  -7.480  1.00 21.09     0.125 A 
HETATM    3  C6    D T 601       7.315   0.220  -7.976  1.00 20.02     0.154 A 
HETATM    4  C1    D T 601       7.237   0.006  -9.338  1.00 18.60     0.041 A 
HETATM    5  O17   D T 601       7.155  -0.833  -7.113  1.00 17.91    -0.188 OA
HETATM    6  C2    D T 601       7.401   1.068 -10.208  1.00 21.19     0.060 A 
HETATM    7  C3    D T 601       7.640   2.371  -9.733  1.00 21.69     0.014 A 
HETATM    8 CL14   D T 601       7.306   0.783 -11.934  1.00 22.27    -0.082 Cl
HETATM    9  C4    D T 601       7.716   2.587  -8.361  1.00 21.63     0.028 A 
ENDBRANCH   1   2
BRANCH   1  10
HETATM   10  C8    D T 601       8.872   1.688  -5.511  1.00 23.87     0.111 A 
HETATM   11  C9    D T 601       8.952   2.008  -4.160  1.00 25.62     0.081 A 
HETATM   12  C10   D T 601      10.163   2.043  -3.505  1.00 25.25     0.025 A 
HETATM   13 CL16   D T 601       7.497   2.376  -3.291  1.00 24.80    -0.080 Cl
HETATM   14  C11   D T 601      11.330   1.751  -4.205  1.00 28.16     0.059 A 
HETATM   15  C12   D T 601      11.276   1.419  -5.564  1.00 26.66     0.013 A 
HETATM   16 CL15   D T 601      12.885   1.813  -3.376  1.00 31.04    -0.082 Cl
HETATM   17  C13   D T 601      10.042   1.386  -6.222  1.00 26.39     0.026 A 
ENDBRANCH   1  10
TORSDOF 2
