REMARK  2 active torsions:
REMARK  status: ('A' for Active; 'I' for Inactive)
REMARK    1  A    between atoms: C5_4  and  O7_13 
REMARK    2  A    between atoms: C8_10  and  O7_13 
ROOT
HETATM    1  O7    D T 601       7.881   1.900  -5.843  1.00 22.53    -0.304 OA
ENDROOT
BRANCH   1   2
HETATM    2  C5    D T 601       7.822   1.846  -7.221  1.00 21.09     0.125 A 
HETATM    3  C6    D T 601       7.527   0.621  -7.825  1.00 20.02     0.154 A 
HETATM    4  C1    D T 601       7.456   0.524  -9.201  1.00 18.60     0.041 A 
HETATM    5  O17   D T 601       7.302  -0.491  -7.053  1.00 17.91    -0.188 OA
HETATM    6  C2    D T 601       7.684   1.645  -9.977  1.00 21.19     0.060 A 
HETATM    7  C3    D T 601       7.983   2.890  -9.394  1.00 21.69     0.014 A 
HETATM    8 CL14   D T 601       7.597   1.509 -11.722  1.00 22.27    -0.082 Cl
HETATM    9  C4    D T 601       8.052   2.988  -8.007  1.00 21.63     0.028 A 
ENDBRANCH   1   2
BRANCH   1  10
HETATM   10  C8    D T 601       9.124   1.797  -5.233  1.00 23.87     0.111 A 
HETATM   11  C9    D T 601       9.203   2.000  -3.859  1.00 25.62     0.081 A 
HETATM   12  C10   D T 601      10.406   1.918  -3.193  1.00 25.25     0.025 A 
HETATM   13 CL16   D T 601       7.757   2.370  -2.975  1.00 24.80    -0.080 Cl
HETATM   14  C11   D T 601      11.565   1.625  -3.905  1.00 28.16     0.059 A 
HETATM   15  C12   D T 601      11.512   1.411  -5.286  1.00 26.66     0.013 A 
HETATM   16 CL15   D T 601      13.110   1.538  -3.060  1.00 31.04    -0.082 Cl
HETATM   17  C13   D T 601      10.287   1.496  -5.956  1.00 26.39     0.026 A 
ENDBRANCH   1  10
TORSDOF 2
