REMARK  2 active torsions:
REMARK  status: ('A' for Active; 'I' for Inactive)
REMARK    1  A    between atoms: C5_4  and  O7_13 
REMARK    2  A    between atoms: C8_10  and  O7_13 
ROOT
HETATM    1  O7    D T1302       7.708   1.711  -6.257  1.00 18.77    -0.304 OA
ENDROOT
BRANCH   1   2
HETATM    2  C5    D T1302       7.536   1.501  -7.606  1.00 19.44     0.125 A 
HETATM    3  C6    D T1302       7.420   0.202  -8.051  1.00 18.58     0.154 A 
HETATM    4  C1    D T1302       7.273  -0.093  -9.414  1.00 18.07     0.041 A 
HETATM    5  O17   D T1302       7.392  -0.843  -7.118  1.00 19.82    -0.188 OA
HETATM    6  C2    D T1302       7.333   0.960 -10.324  1.00 16.92     0.060 A 
HETATM    7  C3    D T1302       7.500   2.276  -9.922  1.00 16.60     0.014 A 
HETATM    8 CL14   D T1302       7.192   0.598 -12.027  1.00 19.02    -0.082 Cl
HETATM    9  C4    D T1302       7.533   2.516  -8.535  1.00 17.69     0.028 A 
ENDBRANCH   1   2
BRANCH   1  10
HETATM   10  C8    D T1302       8.954   1.567  -5.614  1.00 17.66     0.111 A 
HETATM   11  C9    D T1302       9.109   1.741  -4.270  1.00 21.86     0.081 A 
HETATM   12  C10   D T1302      10.354   1.649  -3.644  1.00 21.31     0.025 A 
HETATM   13 CL16   D T1302       7.733   2.179  -3.292  1.00 25.77    -0.080 Cl
HETATM   14  C11   D T1302      11.473   1.349  -4.438  1.00 22.96     0.059 A 
HETATM   15  C12   D T1302      11.379   1.171  -5.791  1.00 22.42     0.013 A 
HETATM   16 CL15   D T1302      13.039   1.241  -3.659  1.00 26.47    -0.082 Cl
HETATM   17  C13   D T1302      10.088   1.298  -6.357  1.00 19.81     0.026 A 
ENDBRANCH   1  10
TORSDOF 2
