REMARK  2 active torsions:
REMARK  status: ('A' for Active; 'I' for Inactive)
REMARK    1  A    between atoms: C5_4  and  O7_13 
REMARK    2  A    between atoms: C8_10  and  O7_13 
ROOT
HETATM    1  O7    D T1302       6.467   2.424  -6.910  1.00 18.77    -0.304 OA
ENDROOT
BRANCH   1   2
HETATM    2  C5    D T1302       6.180   2.175  -8.232  1.00 19.44     0.125 A 
HETATM    3  C6    D T1302       6.173   0.865  -8.659  1.00 18.58     0.154 A 
HETATM    4  C1    D T1302       5.919   0.534  -9.998  1.00 18.07     0.041 A 
HETATM    5  O17   D T1302       6.367  -0.162  -7.726  1.00 19.82    -0.188 OA
HETATM    6  C2    D T1302       5.757   1.574 -10.911  1.00 16.92     0.060 A 
HETATM    7  C3    D T1302       5.808   2.906 -10.533  1.00 16.60     0.014 A 
HETATM    8 CL14   D T1302       5.481   1.172 -12.590  1.00 19.02    -0.082 Cl
HETATM    9  C4    D T1302       5.958   3.169  -9.158  1.00 17.69     0.028 A 
ENDBRANCH   1   2
BRANCH   1  10
HETATM   10  C8    D T1302       7.782   2.437  -6.402  1.00 17.66     0.111 A 
HETATM   11  C9    D T1302       8.056   2.649  -5.082  1.00 21.86     0.081 A 
HETATM   12  C10   D T1302       9.361   2.714  -4.593  1.00 21.31     0.025 A 
HETATM   13 CL16   D T1302       6.748   2.935  -3.965  1.00 25.77    -0.080 Cl
HETATM   14  C11   D T1302      10.419   2.536  -5.501  1.00 22.96     0.059 A 
HETATM   15  C12   D T1302      10.204   2.328  -6.835  1.00 22.42     0.013 A 
HETATM   16 CL15   D T1302      12.059   2.625  -4.893  1.00 26.47    -0.082 Cl
HETATM   17  C13   D T1302       8.855   2.294  -7.261  1.00 19.81     0.026 A 
ENDBRANCH   1  10
TORSDOF 2
