REMARK  2 active torsions:
REMARK  status: ('A' for Active; 'I' for Inactive)
REMARK    1  A    between atoms: C5_4  and  O7_13 
REMARK    2  A    between atoms: C8_10  and  O7_13 
ROOT
HETATM    1  O7    D T1302      12.401  14.639  12.490  1.00 18.77    -0.304 OA
ENDROOT
BRANCH   1   2
HETATM    2  C5    D T1302      11.218  14.993  11.884  1.00 19.44     0.125 A 
HETATM    3  C6    D T1302      10.718  14.164  10.903  1.00 18.58     0.154 A 
HETATM    4  C1    D T1302       9.533  14.473  10.219  1.00 18.07     0.041 A 
HETATM    5  O17   D T1302      11.375  12.959  10.622  1.00 19.82    -0.188 OA
HETATM    6  C2    D T1302       8.914  15.690  10.496  1.00 16.92     0.060 A 
HETATM    7  C3    D T1302       9.412  16.576  11.438  1.00 16.60     0.014 A 
HETATM    8 CL14   D T1302       7.460  16.103   9.619  1.00 19.02    -0.082 Cl
HETATM    9  C4    D T1302      10.542  16.158  12.166  1.00 17.69     0.028 A 
ENDBRANCH   1   2
BRANCH   1  10
HETATM   10  C8    D T1302      13.661  14.870  11.901  1.00 17.66     0.111 A 
HETATM   11  C9    D T1302      14.828  14.483  12.492  1.00 21.86     0.081 A 
HETATM   12  C10   D T1302      16.076  14.760  11.931  1.00 21.31     0.025 A 
HETATM   13 CL16   D T1302      14.787  13.689  14.044  1.00 25.77    -0.080 Cl
HETATM   14  C11   D T1302      16.113  15.447  10.706  1.00 22.96     0.059 A 
HETATM   15  C12   D T1302      14.976  15.865  10.072  1.00 22.42     0.013 A 
HETATM   16 CL15   D T1302      17.677  15.805  10.002  1.00 26.47    -0.082 Cl
HETATM   17  C13   D T1302      13.749  15.565  10.710  1.00 19.81     0.026 A 
ENDBRANCH   1  10
TORSDOF 2
