REMARK  2 active torsions:
REMARK  status: ('A' for Active; 'I' for Inactive)
REMARK    1  A    between atoms: C5_4  and  O7_13 
REMARK    2  A    between atoms: C8_10  and  O7_13 
ROOT
HETATM    1  O7    D T1302       7.973   1.943  -5.987  1.00 18.77    -0.304 OA
ENDROOT
BRANCH   1   2
HETATM    2  C5    D T1302       7.809   1.853  -7.350  1.00 19.44     0.125 A 
HETATM    3  C6    D T1302       7.633   0.603  -7.901  1.00 18.58     0.154 A 
HETATM    4  C1    D T1302       7.489   0.428  -9.286  1.00 18.07     0.041 A 
HETATM    5  O17   D T1302       7.538  -0.512  -7.059  1.00 19.82    -0.188 OA
HETATM    6  C2    D T1302       7.615   1.548 -10.105  1.00 16.92     0.060 A 
HETATM    7  C3    D T1302       7.844   2.816  -9.594  1.00 16.60     0.014 A 
HETATM    8 CL14   D T1302       7.478   1.335 -11.834  1.00 19.02    -0.082 Cl
HETATM    9  C4    D T1302       7.870   2.940  -8.192  1.00 17.69     0.028 A 
ENDBRANCH   1   2
BRANCH   1  10
HETATM   10  C8    D T1302       9.202   1.682  -5.346  1.00 17.66     0.111 A 
HETATM   11  C9    D T1302       9.347   1.737  -3.991  1.00 21.86     0.081 A 
HETATM   12  C10   D T1302      10.577   1.530  -3.363  1.00 21.31     0.025 A 
HETATM   13 CL16   D T1302       7.982   2.164  -2.994  1.00 25.77    -0.080 Cl
HETATM   14  C11   D T1302      11.690   1.238  -4.170  1.00 22.96     0.059 A 
HETATM   15  C12   D T1302      11.604   1.176  -5.533  1.00 22.42     0.013 A 
HETATM   16 CL15   D T1302      13.237   0.985  -3.388  1.00 26.47    -0.082 Cl
HETATM   17  C13   D T1302      10.330   1.416  -6.098  1.00 19.81     0.026 A 
ENDBRANCH   1  10
TORSDOF 2
