REMARK  3 active torsions:
REMARK  status: ('A' for Active; 'I' for Inactive)
REMARK    1  A    between atoms: C4_6  and  C5_7 
REMARK    2  A    between atoms: C5_7  and  C6_8 
REMARK    3  A    between atoms: C5_7  and  C12_16 
ROOT
HETATM    1  C12   D T 441      -1.049  11.943  -5.915  1.00 19.85     0.021 A 
HETATM    2  C13   D T 441      -2.283  11.345  -5.529  1.00 19.83    -0.000 A 
HETATM    3  C14   D T 441      -3.178  12.011  -4.647  1.00 20.16     0.016 A 
HETATM    4  C15   D T 441      -0.743  13.239  -5.430  1.00 20.41    -0.000 A 
HETATM    5  C16   D T 441      -1.620  13.903  -4.557  1.00 20.73     0.017 A 
HETATM    6  C17   D T 441      -2.828  13.298  -4.150  1.00 21.09     0.062 A 
HETATM    7  N4    D T 441      -3.676  13.942  -3.193  1.00 20.91    -0.294 N 
HETATM    8  C18   D T 441      -3.340  15.296  -2.662  1.00 20.23     0.134 C 
HETATM    9  C19   D T 441      -4.851  13.302  -2.741  1.00 22.47     0.261 A 
HETATM   10  O1    D T 441      -5.555  13.833  -1.882  1.00 22.92    -0.267 OA
HETATM   11  C20   D T 441      -5.200  12.045  -3.245  1.00 22.04     0.061 A 
HETATM   12  C21   D T 441      -4.391  11.390  -4.199  1.00 20.64     0.006 A 
HETATM   13  C22   D T 441      -4.871  10.174  -4.754  1.00 21.65     0.001 A 
HETATM   14  C23   D T 441      -4.135   8.971  -4.646  1.00 20.99     0.011 A 
HETATM   15  C24   D T 441      -4.672   7.771  -5.162  1.00 22.35     0.058 A 
HETATM   16 CL2    D T 441      -3.770   6.256  -5.011  1.00 26.30    -0.082 Cl
HETATM   17  C25   D T 441      -5.934   7.762  -5.785  1.00 21.98     0.011 A 
HETATM   18  C26   D T 441      -6.668   8.953  -5.894  1.00 20.12     0.001 A 
HETATM   19  C27   D T 441      -6.140  10.152  -5.383  1.00 21.15     0.000 A 
ENDROOT
BRANCH   1  20
HETATM   20  C5    D T 441      -0.041  11.196  -6.632  1.00 20.67     0.342 C 
HETATM   21  N3    D T 441       0.239  12.038  -7.813  1.00 22.80     0.629 N 
BRANCH  20  22
HETATM   22  C4    D T 441       1.232  11.089  -5.947  1.00 19.37     0.100 A 
HETATM   23  N1    D T 441       2.338  10.640  -6.508  1.00 19.33    -0.308 N 
HETATM   24  C1    D T 441       2.543  10.229  -7.922  1.00 19.43     0.132 C 
HETATM   25  C2    D T 441       3.268  10.601  -5.556  1.00 17.45     0.178 A 
HETATM   26  N2    D T 441       2.688  11.038  -4.407  1.00 18.66    -0.223 NA
HETATM   27  C3    D T 441       1.398  11.347  -4.656  1.00 16.78     0.116 A 
ENDBRANCH  20  22
BRANCH  20  28
HETATM   28  C6    D T 441      -0.497   9.936  -7.138  1.00 20.70     0.021 A 
HETATM   29  C7    D T 441      -0.462   8.785  -6.311  1.00 21.08    -0.001 A 
HETATM   30  C8    D T 441      -0.958   7.557  -6.771  1.00 21.56     0.011 A 
HETATM   31  C9    D T 441      -1.498   7.454  -8.060  1.00 22.96     0.058 A 
HETATM   32 CL1    D T 441      -2.163   5.896  -8.606  1.00 26.89    -0.082 Cl
HETATM   33  C10   D T 441      -1.538   8.584  -8.903  1.00 22.08     0.011 A 
HETATM   34  C11   D T 441      -1.039   9.824  -8.444  1.00 21.58    -0.001 A 
ENDBRANCH  20  28
ENDBRANCH   1  20
TORSDOF 3
