REMARK  3 active torsions:
REMARK  status: ('A' for Active; 'I' for Inactive)
REMARK    1  A    between atoms: C4_6  and  C5_7 
REMARK    2  A    between atoms: C5_7  and  C6_8 
REMARK    3  A    between atoms: C5_7  and  C12_16 
ROOT
HETATM    1  C12   D T 441     -32.346  -2.818  13.473  1.00 19.85     0.021 A 
HETATM    2  C13   D T 441     -31.677  -1.649  13.007  1.00 19.83    -0.000 A 
HETATM    3  C14   D T 441     -31.083  -1.608  11.715  1.00 20.16     0.016 A 
HETATM    4  C15   D T 441     -32.442  -3.935  12.604  1.00 20.41    -0.000 A 
HETATM    5  C16   D T 441     -31.857  -3.904  11.329  1.00 20.73     0.017 A 
HETATM    6  C17   D T 441     -31.168  -2.757  10.879  1.00 21.09     0.062 A 
HETATM    7  N4    D T 441     -30.500  -2.762   9.612  1.00 20.91    -0.294 N 
HETATM    8  C18   D T 441     -30.580  -3.947   8.710  1.00 20.23     0.134 C 
HETATM    9  C19   D T 441     -29.759  -1.634   9.197  1.00 22.47     0.261 A 
HETATM   10  O1    D T 441     -29.144  -1.655   8.131  1.00 22.92    -0.267 OA
HETATM   11  C20   D T 441     -29.692  -0.501  10.014  1.00 22.04     0.061 A 
HETATM   12  C21   D T 441     -30.351  -0.461  11.263  1.00 20.64     0.006 A 
HETATM   13  C22   D T 441     -30.339   0.764  11.980  1.00 21.65     0.001 A 
HETATM   14  C23   D T 441     -29.803   0.851  13.286  1.00 20.99     0.011 A 
HETATM   15  C24   D T 441     -29.759   2.099  13.945  1.00 22.35     0.058 A 
HETATM   16 CL2    D T 441     -29.067   2.224  15.569  1.00 26.30    -0.082 Cl
HETATM   17  C25   D T 441     -30.247   3.259  13.314  1.00 21.98     0.011 A 
HETATM   18  C26   D T 441     -30.780   3.178  12.019  1.00 20.12     0.001 A 
HETATM   19  C27   D T 441     -30.827   1.939  11.355  1.00 21.15     0.000 A 
ENDROOT
BRANCH   1  20
HETATM   20  C5    D T 441     -32.763  -2.950  14.850  1.00 20.67     0.342 C 
HETATM   21  N3    D T 441     -34.197  -3.286  14.746  1.00 22.80     0.629 N 
BRANCH  20  22
HETATM   22  C4    D T 441     -32.172  -4.070  15.554  1.00 19.37     0.100 A 
HETATM   23  N1    D T 441     -32.572  -4.494  16.738  1.00 19.33    -0.308 N 
HETATM   24  C1    D T 441     -33.711  -3.991  17.550  1.00 19.43     0.132 C 
HETATM   25  C2    D T 441     -31.744  -5.471  17.102  1.00 17.45     0.178 A 
HETATM   26  N2    D T 441     -30.834  -5.621  16.102  1.00 18.66    -0.223 NA
HETATM   27  C3    D T 441     -31.106  -4.733  15.123  1.00 16.78     0.116 A 
ENDBRANCH  20  22
BRANCH  20  28
HETATM   28  C6    D T 441     -32.691  -1.732  15.601  1.00 20.70     0.021 A 
HETATM   29  C7    D T 441     -31.475  -1.354  16.224  1.00 21.08    -0.001 A 
HETATM   30  C8    D T 441     -31.371  -0.139  16.914  1.00 21.56     0.011 A 
HETATM   31  C9    D T 441     -32.474   0.722  16.995  1.00 22.96     0.058 A 
HETATM   32 CL1    D T 441     -32.306   2.281  17.837  1.00 26.89    -0.082 Cl
HETATM   33  C10   D T 441     -33.696   0.364  16.387  1.00 22.08     0.011 A 
HETATM   34  C11   D T 441     -33.806  -0.860  15.691  1.00 21.58    -0.001 A 
ENDBRANCH  20  28
ENDBRANCH   1  20
TORSDOF 3
