REMARK  3 active torsions:
REMARK  status: ('A' for Active; 'I' for Inactive)
REMARK    1  A    between atoms: C4_6  and  C5_7 
REMARK    2  A    between atoms: C5_7  and  C6_8 
REMARK    3  A    between atoms: C5_7  and  C12_16 
ROOT
HETATM    1  C12   D T 441       2.101  12.836  -6.046  1.00 19.85     0.021 A 
HETATM    2  C13   D T 441       0.767  12.342  -6.126  1.00 19.83    -0.000 A 
HETATM    3  C14   D T 441      -0.323  13.075  -5.580  1.00 20.16     0.016 A 
HETATM    4  C15   D T 441       2.319  14.100  -5.441  1.00 20.41    -0.000 A 
HETATM    5  C16   D T 441       1.250  14.830  -4.898  1.00 20.73     0.017 A 
HETATM    6  C17   D T 441      -0.067  14.325  -4.950  1.00 21.09     0.062 A 
HETATM    7  N4    D T 441      -1.140  15.032  -4.318  1.00 20.91    -0.294 N 
HETATM    8  C18   D T 441      -0.904  16.350  -3.659  1.00 20.23     0.134 C 
HETATM    9  C19   D T 441      -2.444  14.490  -4.318  1.00 22.47     0.261 A 
HETATM   10  O1    D T 441      -3.357  15.073  -3.733  1.00 22.92    -0.267 OA
HETATM   11  C20   D T 441      -2.694  13.269  -4.953  1.00 22.04     0.061 A 
HETATM   12  C21   D T 441      -1.659  12.555  -5.595  1.00 20.64     0.006 A 
HETATM   13  C22   D T 441      -2.011  11.387  -6.321  1.00 21.65     0.001 A 
HETATM   14  C23   D T 441      -1.450  10.126  -6.010  1.00 20.99     0.011 A 
HETATM   15  C24   D T 441      -1.868   8.978  -6.719  1.00 22.35     0.058 A 
HETATM   16 CL2    D T 441      -1.192   7.392  -6.321  1.00 26.30    -0.082 Cl
HETATM   17  C25   D T 441      -2.836   9.078  -7.736  1.00 21.98     0.011 A 
HETATM   18  C26   D T 441      -3.394  10.327  -8.049  1.00 20.12     0.001 A 
HETATM   19  C27   D T 441      -2.985  11.474  -7.347  1.00 21.15     0.000 A 
ENDROOT
BRANCH   1  20
HETATM   20  C5    D T 441       3.234  12.012  -6.401  1.00 20.67     0.342 C 
HETATM   21  N3    D T 441       3.965  12.835  -7.386  1.00 22.80     0.629 N 
BRANCH  20  22
HETATM   22  C4    D T 441       4.181  11.795  -5.326  1.00 19.37     0.100 A 
HETATM   23  N1    D T 441       5.376  11.259  -5.490  1.00 19.33    -0.308 N 
HETATM   24  C1    D T 441       6.021  10.841  -6.762  1.00 19.43     0.132 C 
HETATM   25  C2    D T 441       5.916  11.137  -4.279  1.00 17.45     0.178 A 
HETATM   26  N2    D T 441       5.012  11.614  -3.384  1.00 18.66    -0.223 NA
HETATM   27  C3    D T 441       3.913  12.031  -4.048  1.00 16.78     0.116 A 
ENDBRANCH  20  22
BRANCH  20  28
HETATM   28  C6    D T 441       2.884  10.798  -7.075  1.00 20.70     0.021 A 
HETATM   29  C7    D T 441       2.545   9.643  -6.325  1.00 21.08    -0.001 A 
HETATM   30  C8    D T 441       2.144   8.464  -6.969  1.00 21.56     0.011 A 
HETATM   31  C9    D T 441       2.074   8.413  -8.367  1.00 22.96     0.058 A 
HETATM   32 CL1    D T 441       1.519   6.920  -9.161  1.00 26.89    -0.082 Cl
HETATM   33  C10   D T 441       2.412   9.548  -9.134  1.00 22.08     0.011 A 
HETATM   34  C11   D T 441       2.817  10.739  -8.490  1.00 21.58    -0.001 A 
ENDBRANCH  20  28
ENDBRANCH   1  20
TORSDOF 3
