REMARK  3 active torsions:
REMARK  status: ('A' for Active; 'I' for Inactive)
REMARK    1  A    between atoms: C4_6  and  C5_7 
REMARK    2  A    between atoms: C5_7  and  C6_8 
REMARK    3  A    between atoms: C5_7  and  C12_16 
ROOT
HETATM    1  C12   D T 441     -21.296   0.563  31.419  1.00 19.85     0.021 A 
HETATM    2  C13   D T 441     -21.069   0.323  30.033  1.00 19.83    -0.000 A 
HETATM    3  C14   D T 441     -21.715  -0.748  29.357  1.00 20.16     0.016 A 
HETATM    4  C15   D T 441     -22.215  -0.269  32.108  1.00 20.41    -0.000 A 
HETATM    5  C16   D T 441     -22.856  -1.330  31.449  1.00 20.73     0.017 A 
HETATM    6  C17   D T 441     -22.606  -1.586  30.084  1.00 21.09     0.062 A 
HETATM    7  N4    D T 441     -23.196  -2.721  29.439  1.00 20.91    -0.294 N 
HETATM    8  C18   D T 441     -24.142  -3.611  30.173  1.00 20.23     0.134 C 
HETATM    9  C19   D T 441     -22.891  -3.008  28.090  1.00 22.47     0.261 A 
HETATM   10  O1    D T 441     -23.358  -4.010  27.550  1.00 22.92    -0.267 OA
HETATM   11  C20   D T 441     -22.028  -2.172  27.375  1.00 22.04     0.061 A 
HETATM   12  C21   D T 441     -21.441  -1.038  27.979  1.00 20.64     0.006 A 
HETATM   13  C22   D T 441     -20.675  -0.171  27.158  1.00 21.65     0.001 A 
HETATM   14  C23   D T 441     -19.317   0.106  27.440  1.00 20.99     0.011 A 
HETATM   15  C24   D T 441     -18.572   0.930  26.568  1.00 22.35     0.058 A 
HETATM   16 CL2    D T 441     -16.866   1.262  26.898  1.00 26.30    -0.082 Cl
HETATM   17  C25   D T 441     -19.171   1.481  25.419  1.00 21.98     0.011 A 
HETATM   18  C26   D T 441     -20.518   1.210  25.135  1.00 20.12     0.001 A 
HETATM   19  C27   D T 441     -21.266   0.390  25.999  1.00 21.15     0.000 A 
ENDROOT
BRANCH   1  20
HETATM   20  C5    D T 441     -20.492   1.504  32.164  1.00 20.67     0.342 C 
HETATM   21  N3    D T 441     -21.491   2.397  32.787  1.00 22.80     0.629 N 
BRANCH  20  22
HETATM   22  C4    D T 441     -19.767   0.928  33.279  1.00 19.37     0.100 A 
HETATM   23  N1    D T 441     -19.151   1.637  34.206  1.00 19.33    -0.308 N 
HETATM   24  C1    D T 441     -19.121   3.115  34.355  1.00 19.43     0.132 C 
HETATM   25  C2    D T 441     -18.527   0.773  35.005  1.00 17.45     0.178 A 
HETATM   26  N2    D T 441     -18.786  -0.475  34.530  1.00 18.66    -0.223 NA
HETATM   27  C3    D T 441     -19.571  -0.375  33.436  1.00 16.78     0.116 A 
ENDBRANCH  20  22
BRANCH  20  28
HETATM   28  C6    D T 441     -19.664   2.340  31.347  1.00 20.70     0.021 A 
HETATM   29  C7    D T 441     -18.383   1.887  30.940  1.00 21.08    -0.001 A 
HETATM   30  C8    D T 441     -17.584   2.667  30.093  1.00 21.56     0.011 A 
HETATM   31  C9    D T 441     -18.044   3.910  29.637  1.00 22.96     0.058 A 
HETATM   32 CL1    D T 441     -17.032   4.862  28.525  1.00 26.89    -0.082 Cl
HETATM   33  C10   D T 441     -19.313   4.382  30.032  1.00 22.08     0.011 A 
HETATM   34  C11   D T 441     -20.123   3.600  30.887  1.00 21.58    -0.001 A 
ENDBRANCH  20  28
ENDBRANCH   1  20
TORSDOF 3
