REMARK  3 active torsions:
REMARK  status: ('A' for Active; 'I' for Inactive)
REMARK    1  A    between atoms: C4_6  and  C5_7 
REMARK    2  A    between atoms: C5_7  and  C6_8 
REMARK    3  A    between atoms: C5_7  and  C12_16 
ROOT
HETATM    1  C12   D T 441     -22.440  -5.483  -0.103  1.00 19.85     0.021 A 
HETATM    2  C13   D T 441     -21.331  -5.502  -0.998  1.00 19.83    -0.000 A 
HETATM    3  C14   D T 441     -20.805  -6.728  -1.491  1.00 20.16     0.016 A 
HETATM    4  C15   D T 441     -23.036  -6.717   0.261  1.00 20.41    -0.000 A 
HETATM    5  C16   D T 441     -22.522  -7.931  -0.219  1.00 20.73     0.017 A 
HETATM    6  C17   D T 441     -21.405  -7.951  -1.082  1.00 21.09     0.062 A 
HETATM    7  N4    D T 441     -20.833  -9.196  -1.498  1.00 20.91    -0.294 N 
HETATM    8  C18   D T 441     -21.446 -10.494  -1.093  1.00 20.23     0.134 C 
HETATM    9  C19   D T 441     -19.676  -9.208  -2.309  1.00 22.47     0.261 A 
HETATM   10  O1    D T 441     -19.154 -10.277  -2.627  1.00 22.92    -0.267 OA
HETATM   11  C20   D T 441     -19.099  -8.003  -2.723  1.00 22.04     0.061 A 
HETATM   12  C21   D T 441     -19.649  -6.760  -2.339  1.00 20.64     0.006 A 
HETATM   13  C22   D T 441     -19.082  -5.584  -2.897  1.00 21.65     0.001 A 
HETATM   14  C23   D T 441     -18.539  -4.566  -2.079  1.00 20.99     0.011 A 
HETATM   15  C24   D T 441     -17.934  -3.437  -2.674  1.00 22.35     0.058 A 
HETATM   16 CL2    D T 441     -17.228  -2.169  -1.660  1.00 26.30    -0.082 Cl
HETATM   17  C25   D T 441     -17.870  -3.314  -4.074  1.00 21.98     0.011 A 
HETATM   18  C26   D T 441     -18.408  -4.321  -4.890  1.00 20.12     0.001 A 
HETATM   19  C27   D T 441     -19.011  -5.449  -4.306  1.00 21.15     0.000 A 
ENDROOT
BRANCH   1  20
HETATM   20  C5    D T 441     -22.846  -4.270   0.569  1.00 20.67     0.342 C 
HETATM   21  N3    D T 441     -24.283  -4.160   0.245  1.00 22.80     0.629 N 
BRANCH  20  22
HETATM   22  C4    D T 441     -22.799  -4.338   2.016  1.00 19.37     0.100 A 
HETATM   23  N1    D T 441     -23.323  -3.429   2.816  1.00 19.33    -0.308 N 
HETATM   24  C1    D T 441     -24.107  -2.224   2.439  1.00 19.43     0.132 C 
HETATM   25  C2    D T 441     -23.007  -3.780   4.061  1.00 17.45     0.178 A 
HETATM   26  N2    D T 441     -22.276  -4.924   3.985  1.00 18.66    -0.223 NA
HETATM   27  C3    D T 441     -22.145  -5.277   2.689  1.00 16.78     0.116 A 
ENDBRANCH  20  22
BRANCH  20  28
HETATM   28  C6    D T 441     -22.228  -3.084   0.057  1.00 20.70     0.021 A 
HETATM   29  C7    D T 441     -20.959  -2.679   0.543  1.00 21.08    -0.001 A 
HETATM   30  C8    D T 441     -20.315  -1.553   0.011  1.00 21.56     0.011 A 
HETATM   31  C9    D T 441     -20.921  -0.812  -1.011  1.00 22.96     0.058 A 
HETATM   32 CL1    D T 441     -20.064   0.587  -1.702  1.00 26.89    -0.082 Cl
HETATM   33  C10   D T 441     -22.186  -1.193  -1.507  1.00 22.08     0.011 A 
HETATM   34  C11   D T 441     -22.840  -2.326  -0.974  1.00 21.58    -0.001 A 
ENDBRANCH  20  28
ENDBRANCH   1  20
TORSDOF 3
