REMARK  3 active torsions:
REMARK  status: ('A' for Active; 'I' for Inactive)
REMARK    1  A    between atoms: C4_6  and  C5_7 
REMARK    2  A    between atoms: C5_7  and  C6_8 
REMARK    3  A    between atoms: C5_7  and  C12_16 
ROOT
HETATM    1  C12   D T 441       8.230  -7.923   6.797  1.00 19.85     0.021 A 
HETATM    2  C13   D T 441       8.933  -6.926   6.059  1.00 19.83    -0.000 A 
HETATM    3  C14   D T 441       9.663  -5.901   6.720  1.00 20.16     0.016 A 
HETATM    4  C15   D T 441       8.305  -7.896   8.213  1.00 20.41    -0.000 A 
HETATM    5  C16   D T 441       9.022  -6.886   8.874  1.00 20.73     0.017 A 
HETATM    6  C17   D T 441       9.692  -5.881   8.143  1.00 21.09     0.062 A 
HETATM    7  N4    D T 441      10.349  -4.806   8.824  1.00 20.91    -0.294 N 
HETATM    8  C18   D T 441      10.404  -4.764  10.314  1.00 20.23     0.134 C 
HETATM    9  C19   D T 441      10.962  -3.769   8.086  1.00 22.47     0.261 A 
HETATM   10  O1    D T 441      11.485  -2.819   8.669  1.00 22.92    -0.267 OA
HETATM   11  C20   D T 441      10.946  -3.802   6.688  1.00 22.04     0.061 A 
HETATM   12  C21   D T 441      10.318  -4.856   5.989  1.00 20.64     0.006 A 
HETATM   13  C22   D T 441      10.448  -4.884   4.576  1.00 21.65     0.001 A 
HETATM   14  C23   D T 441       9.315  -4.862   3.728  1.00 20.99     0.011 A 
HETATM   15  C24   D T 441       9.488  -4.835   2.327  1.00 22.35     0.058 A 
HETATM   16 CL2    D T 441       8.078  -4.782   1.258  1.00 26.30    -0.082 Cl
HETATM   17  C25   D T 441      10.778  -4.833   1.765  1.00 21.98     0.011 A 
HETATM   18  C26   D T 441      11.904  -4.856   2.601  1.00 20.12     0.001 A 
HETATM   19  C27   D T 441      11.741  -4.881   3.997  1.00 21.15     0.000 A 
ENDROOT
BRANCH   1  20
HETATM   20  C5    D T 441       7.316  -8.836   6.150  1.00 20.67     0.342 C 
HETATM   21  N3    D T 441       7.795 -10.166   6.577  1.00 22.80     0.629 N 
BRANCH  20  22
HETATM   22  C4    D T 441       5.951  -8.764   6.632  1.00 19.37     0.100 A 
HETATM   23  N1    D T 441       5.014  -9.644   6.333  1.00 19.33    -0.308 N 
HETATM   24  C1    D T 441       5.153 -10.888   5.533  1.00 19.43     0.132 C 
HETATM   25  C2    D T 441       3.880  -9.203   6.876  1.00 17.45     0.178 A 
HETATM   26  N2    D T 441       4.164  -8.033   7.507  1.00 18.66    -0.223 NA
HETATM   27  C3    D T 441       5.475  -7.756   7.352  1.00 16.78     0.116 A 
ENDBRANCH  20  22
BRANCH  20  28
HETATM   28  C6    D T 441       7.392  -8.823   4.719  1.00 20.70     0.021 A 
HETATM   29  C7    D T 441       6.642  -7.876   3.978  1.00 21.08    -0.001 A 
HETATM   30  C8    D T 441       6.750  -7.812   2.582  1.00 21.56     0.011 A 
HETATM   31  C9    D T 441       7.605  -8.689   1.900  1.00 22.96     0.058 A 
HETATM   32 CL1    D T 441       7.760  -8.559   0.132  1.00 26.89    -0.082 Cl
HETATM   33  C10   D T 441       8.357  -9.643   2.617  1.00 22.08     0.011 A 
HETATM   34  C11   D T 441       8.252  -9.711   4.025  1.00 21.58    -0.001 A 
ENDBRANCH  20  28
ENDBRANCH   1  20
TORSDOF 3
