REMARK  3 active torsions:
REMARK  status: ('A' for Active; 'I' for Inactive)
REMARK    1  A    between atoms: C4_6  and  C5_7 
REMARK    2  A    between atoms: C5_7  and  C6_8 
REMARK    3  A    between atoms: C5_7  and  C12_16 
ROOT
HETATM    1  C12   D T 441       8.116  -6.596   9.359  1.00 19.85     0.021 A 
HETATM    2  C13   D T 441       8.665  -5.555   8.555  1.00 19.83    -0.000 A 
HETATM    3  C14   D T 441       9.216  -4.383   9.145  1.00 20.16     0.016 A 
HETATM    4  C15   D T 441       8.163  -6.458  10.769  1.00 20.41    -0.000 A 
HETATM    5  C16   D T 441       8.702  -5.305  11.360  1.00 20.73     0.017 A 
HETATM    6  C17   D T 441       9.218  -4.260  10.563  1.00 21.09     0.062 A 
HETATM    7  N4    D T 441       9.687  -3.050  11.168  1.00 20.91    -0.294 N 
HETATM    8  C18   D T 441       9.712  -2.896  12.652  1.00 20.23     0.134 C 
HETATM    9  C19   D T 441      10.142  -1.984  10.361  1.00 22.47     0.261 A 
HETATM   10  O1    D T 441      10.500  -0.925  10.877  1.00 22.92    -0.267 OA
HETATM   11  C20   D T 441      10.154  -2.116   8.969  1.00 22.04     0.061 A 
HETATM   12  C21   D T 441       9.709  -3.302   8.343  1.00 20.64     0.006 A 
HETATM   13  C22   D T 441       9.865  -3.408   6.937  1.00 21.65     0.001 A 
HETATM   14  C23   D T 441       8.756  -3.624   6.085  1.00 20.99     0.011 A 
HETATM   15  C24   D T 441       8.945  -3.668   4.686  1.00 22.35     0.058 A 
HETATM   16 CL2    D T 441       7.561  -3.912   3.610  1.00 26.30    -0.082 Cl
HETATM   17  C25   D T 441      10.227  -3.501   4.131  1.00 21.98     0.011 A 
HETATM   18  C26   D T 441      11.330  -3.288   4.972  1.00 20.12     0.001 A 
HETATM   19  C27   D T 441      11.151  -3.242   6.366  1.00 21.15     0.000 A 
ENDROOT
BRANCH   1  20
HETATM   20  C5    D T 441       7.366  -7.684   8.774  1.00 20.67     0.342 C 
HETATM   21  N3    D T 441       8.041  -8.889   9.297  1.00 22.80     0.629 N 
BRANCH  20  22
HETATM   22  C4    D T 441       5.999  -7.794   9.243  1.00 19.37     0.100 A 
HETATM   23  N1    D T 441       5.217  -8.830   9.004  1.00 19.33    -0.308 N 
HETATM   24  C1    D T 441       5.562 -10.090   8.295  1.00 19.43     0.132 C 
HETATM   25  C2    D T 441       4.020  -8.536   9.508  1.00 17.45     0.178 A 
HETATM   26  N2    D T 441       4.106  -7.295  10.056  1.00 18.66    -0.223 NA
HETATM   27  C3    D T 441       5.360  -6.826   9.888  1.00 16.78     0.116 A 
ENDBRANCH  20  22
BRANCH  20  28
HETATM   28  C6    D T 441       7.463  -7.759   7.347  1.00 20.70     0.021 A 
HETATM   29  C7    D T 441       6.585  -6.996   6.536  1.00 21.08    -0.001 A 
HETATM   30  C8    D T 441       6.704  -7.014   5.139  1.00 21.56     0.011 A 
HETATM   31  C9    D T 441       7.696  -7.790   4.526  1.00 22.96     0.058 A 
HETATM   32 CL1    D T 441       7.858  -7.761   2.754  1.00 26.89    -0.082 Cl
HETATM   33  C10   D T 441       8.578  -8.561   5.313  1.00 22.08     0.011 A 
HETATM   34  C11   D T 441       8.462  -8.547   6.721  1.00 21.58    -0.001 A 
ENDBRANCH  20  28
ENDBRANCH   1  20
TORSDOF 3
