REMARK  2 active torsions:
REMARK  status: ('A' for Active; 'I' for Inactive)
REMARK    1  A    between atoms: C5_4  and  O7_13 
REMARK    2  A    between atoms: C8_10  and  O7_13 
ROOT
HETATM    1  O7    D T 502       7.986   1.819  -6.007  1.00 42.62    -0.304 OA
ENDROOT
BRANCH   1   2
HETATM    2  C5    D T 502       7.959   1.768  -7.406  1.00 45.64     0.125 A 
HETATM    3  C6    D T 502       7.561   0.503  -8.044  1.00 42.75     0.154 A 
HETATM    4  C1    D T 502       7.523   0.417  -9.450  1.00 37.90     0.041 A 
HETATM    5  O17   D T 502       7.238  -0.549  -7.305  1.00 33.10    -0.188 OA
HETATM    6  C2    D T 502       7.875   1.566 -10.220  1.00 35.81     0.060 A 
HETATM    7  C3    D T 502       8.275   2.828  -9.616  1.00 39.03     0.014 A 
HETATM    8 CL14   D T 502       7.810   1.440 -11.961  1.00 14.39    -0.082 Cl
HETATM    9  C4    D T 502       8.307   2.899  -8.204  1.00 45.32     0.028 A 
ENDBRANCH   1   2
BRANCH   1  10
HETATM   10  C8    D T 502       9.191   1.646  -5.218  1.00 43.73     0.107 A 
HETATM   11  C9    D T 502       9.126   2.038  -3.793  1.00 40.41     0.063 A 
HETATM   12  C10   D T 502      10.272   1.901  -2.946  1.00 39.25     0.078 A 
HETATM   13 CL16   D T 502       7.661   2.683  -3.075  1.00 15.54    -0.085 Cl
HETATM   14  C11   D T 502      11.512   1.368  -3.505  1.00 44.23     0.041 A 
HETATM   15  C12   D T 502      11.601   0.980  -4.885  1.00 45.82     0.009 A 
HETATM   16 CL15   D T 502      12.893   1.198  -2.513  1.00 27.02    -0.087 Cl
HETATM   17  C13   D T 502      10.438   1.125  -5.725  1.00 43.44     0.026 A 
ENDBRANCH   1  10
TORSDOF 2
