REMARK  2 active torsions:
REMARK  status: ('A' for Active; 'I' for Inactive)
REMARK    1  A    between atoms: C5_4  and  O7_13 
REMARK    2  A    between atoms: C8_10  and  O7_13 
ROOT
HETATM    1  O7    D T 502       6.510   2.273  -6.941  1.00 42.62    -0.304 OA
ENDROOT
BRANCH   1   2
HETATM    2  C5    D T 502       6.344   2.079  -8.318  1.00 45.64     0.125 A 
HETATM    3  C6    D T 502       6.113   0.708  -8.799  1.00 42.75     0.154 A 
HETATM    4  C1    D T 502       5.942   0.477 -10.178  1.00 37.90     0.041 A 
HETATM    5  O17   D T 502       6.064  -0.305  -7.945  1.00 33.10    -0.188 OA
HETATM    6  C2    D T 502       5.998   1.585 -11.075  1.00 35.81     0.060 A 
HETATM    7  C3    D T 502       6.228   2.951 -10.627  1.00 39.03     0.014 A 
HETATM    8 CL14   D T 502       5.772   1.277 -12.780  1.00 14.39    -0.082 Cl
HETATM    9  C4    D T 502       6.397   3.166  -9.239  1.00 45.32     0.028 A 
ENDBRANCH   1   2
BRANCH   1  10
HETATM   10  C8    D T 502       7.803   2.386  -6.294  1.00 43.73     0.107 A 
HETATM   11  C9    D T 502       7.821   2.901  -4.908  1.00 40.41     0.063 A 
HETATM   12  C10   D T 502       9.057   3.044  -4.199  1.00 39.25     0.078 A 
HETATM   13 CL16   D T 502       6.349   3.358  -4.069  1.00 15.54    -0.085 Cl
HETATM   14  C11   D T 502      10.306   2.675  -4.860  1.00 44.23     0.041 A 
HETATM   15  C12   D T 502      10.315   2.172  -6.206  1.00 45.82     0.009 A 
HETATM   16 CL15   D T 502      11.792   2.840  -4.034  1.00 27.02    -0.087 Cl
HETATM   17  C13   D T 502       9.062   2.034  -6.906  1.00 43.44     0.026 A 
ENDBRANCH   1  10
TORSDOF 2
