REMARK  2 active torsions:
REMARK  status: ('A' for Active; 'I' for Inactive)
REMARK    1  A    between atoms: CBF_31  and  CBG_32 
REMARK    2  A    between atoms: CBG_32  and  NBH_33 
ROOT
HETATM    1  CBD   D T1374       7.053   3.973  -2.862  1.00 18.24     0.056 C 
HETATM    2  CBB   D T1374       6.744   2.496  -2.851  1.00 13.77     0.109 C 
HETATM    3  NAW   D T1374       6.747   1.778  -4.137  1.00 11.00    -0.326 N 
HETATM    4  CAV   D T1374       6.092   2.211  -5.274  1.00  9.70     0.076 A 
HETATM    5  CAX   D T1374       7.129   0.538  -4.360  1.00 10.89     0.060 A 
HETATM    6  CAY   D T1374       7.765  -0.394  -3.515  1.00 13.31     0.017 A 
HETATM    7  CAZ   D T1374       8.093  -1.670  -4.027  1.00 12.88     0.002 A 
HETATM    8  CAP   D T1374       7.830  -2.038  -5.349  1.00 12.85     0.000 A 
HETATM    9  CAO   D T1374       7.176  -1.108  -6.195  1.00 12.21     0.002 A 
HETATM   10  CAN   D T1374       6.818   0.185  -5.682  1.00 11.16     0.017 A 
HETATM   11  CAM   D T1374       6.204   1.289  -6.269  1.00 10.47     0.023 A 
HETATM   12  CAH   D T1374       5.533   1.463  -7.536  1.00 11.61     0.064 A 
HETATM   13  CAE   D T1374       4.699   0.464  -8.142  1.00 11.67     0.282 A 
HETATM   14  OAF   D T1374       4.508  -0.705  -7.750  1.00 12.38    -0.265 OA
HETATM   15  NAD   D T1374       4.103   0.946  -9.269  1.00 11.58    -0.169 NA
HETATM   16  CAC   D T1374       4.480   2.202  -9.400  1.00 11.36     0.282 A 
HETATM   17  OAB   D T1374       4.049   2.934 -10.304  1.00 13.28    -0.265 OA
HETATM   18  CAG   D T1374       5.392   2.610  -8.384  1.00 10.54     0.064 A 
HETATM   19  CAL   D T1374       5.978   3.898  -8.153  1.00 12.92     0.023 A 
HETATM   20  CAU   D T1374       7.166   4.054  -7.508  1.00 12.44     0.076 A 
HETATM   21  CAK   D T1374       5.507   5.210  -8.407  1.00 12.61     0.017 A 
HETATM   22  CAJ   D T1374       4.336   5.737  -9.038  1.00 13.95     0.002 A 
HETATM   23  CAI   D T1374       4.188   7.128  -9.096  1.00 15.63     0.000 A 
HETATM   24  CAQ   D T1374       5.144   8.004  -8.555  1.00 14.37     0.002 A 
HETATM   25  CAR   D T1374       6.280   7.487  -7.930  1.00 13.26     0.017 A 
HETATM   26  CAS   D T1374       6.447   6.088  -7.861  1.00 11.92     0.060 A 
HETATM   27  NAT   D T1374       7.436   5.364  -7.335  1.00 12.89    -0.324 N 
HETATM   28  CBA   D T1374       8.648   5.823  -6.600  1.00 13.69     0.138 C 
HETATM   29  CBC   D T1374       8.261   5.837  -5.114  1.00 16.12     0.167 C 
HETATM   30  OBE   D T1374       8.540   4.482  -4.683  1.00 16.41    -0.352 OA
HETATM   31  CBF   D T1374       8.502   4.256  -3.266  1.00 19.48     0.151 C 
ENDROOT
BRANCH  31  32
HETATM   32  CBG   D T1374       9.442   3.035  -3.121  1.00 23.41     0.280 C 
BRANCH  32  33
HETATM   33  NBH   D T1374      10.889   3.363  -3.351  1.00 26.24     0.144 N 
HETATM   34  CBI   D T1374      11.732   2.431  -2.583  1.00 27.90     0.286 C 
HETATM   35  CBJ   D T1374      11.285   3.116  -4.762  1.00 27.31     0.286 C 
ENDBRANCH  32  33
ENDBRANCH  31  32
TORSDOF 2
