REMARK  2 active torsions:
REMARK  status: ('A' for Active; 'I' for Inactive)
REMARK    1  A    between atoms: CBF_31  and  CBG_32 
REMARK    2  A    between atoms: CBG_32  and  NBH_33 
ROOT
HETATM    1  CBD   D T1374      -4.422   0.360  -9.115  1.00 18.24     0.056 C 
HETATM    2  CBB   D T1374      -3.065  -0.037  -8.588  1.00 13.77     0.109 C 
HETATM    3  NAW   D T1374      -2.192  -0.843  -9.458  1.00 11.00    -0.326 N 
HETATM    4  CAV   D T1374      -2.595  -1.981 -10.130  1.00  9.70     0.076 A 
HETATM    5  CAX   D T1374      -0.880  -0.786  -9.549  1.00 10.89     0.060 A 
HETATM    6  CAY   D T1374       0.042   0.119  -8.985  1.00 13.31     0.017 A 
HETATM    7  CAZ   D T1374       1.417  -0.036  -9.271  1.00 12.88     0.002 A 
HETATM    8  CAP   D T1374       1.899  -1.043 -10.111  1.00 12.85     0.000 A 
HETATM    9  CAO   D T1374       0.976  -1.964 -10.666  1.00 12.21     0.002 A 
HETATM   10  CAN   D T1374      -0.423  -1.830 -10.367  1.00 11.16     0.017 A 
HETATM   11  CAM   D T1374      -1.542  -2.553 -10.775  1.00 10.47     0.023 A 
HETATM   12  CAH   D T1374      -1.680  -3.806 -11.481  1.00 11.61     0.064 A 
HETATM   13  CAE   D T1374      -0.814  -4.933 -11.285  1.00 11.67     0.282 A 
HETATM   14  OAF   D T1374       0.219  -4.984 -10.586  1.00 12.38    -0.265 OA
HETATM   15  NAD   D T1374      -1.254  -6.013 -11.991  1.00 11.58    -0.169 NA
HETATM   16  CAC   D T1374      -2.365  -5.652 -12.599  1.00 11.36     0.282 A 
HETATM   17  OAB   D T1374      -3.041  -6.444 -13.273  1.00 13.28    -0.265 OA
HETATM   18  CAG   D T1374      -2.701  -4.287 -12.364  1.00 10.54     0.064 A 
HETATM   19  CAL   D T1374      -3.849  -3.546 -12.800  1.00 12.92     0.023 A 
HETATM   20  CAU   D T1374      -3.829  -2.194 -12.953  1.00 12.44     0.076 A 
HETATM   21  CAK   D T1374      -5.184  -3.940 -13.065  1.00 12.61     0.017 A 
HETATM   22  CAJ   D T1374      -5.862  -5.201 -13.072  1.00 13.95     0.002 A 
HETATM   23  CAI   D T1374      -7.229  -5.212 -13.371  1.00 15.63     0.000 A 
HETATM   24  CAQ   D T1374      -7.941  -4.035 -13.655  1.00 14.37     0.002 A 
HETATM   25  CAR   D T1374      -7.280  -2.805 -13.637  1.00 13.26     0.017 A 
HETATM   26  CAS   D T1374      -5.902  -2.773 -13.338  1.00 11.92     0.060 A 
HETATM   27  NAT   D T1374      -5.059  -1.741 -13.271  1.00 12.89    -0.324 N 
HETATM   28  CBA   D T1374      -5.339  -0.287 -13.437  1.00 13.69     0.138 C 
HETATM   29  CBC   D T1374      -5.645   0.248 -12.030  1.00 16.12     0.167 C 
HETATM   30  OBE   D T1374      -4.335   0.583 -11.508  1.00 16.41    -0.352 OA
HETATM   31  CBF   D T1374      -4.322   1.338 -10.287  1.00 19.48     0.151 C 
ENDROOT
BRANCH  31  32
HETATM   32  CBG   D T1374      -2.958   2.061 -10.385  1.00 23.41     0.280 C 
BRANCH  32  33
HETATM   33  NBH   D T1374      -2.925   3.141 -11.426  1.00 26.24     0.144 N 
HETATM   34  CBI   D T1374      -1.947   4.171 -11.036  1.00 27.90     0.286 C 
HETATM   35  CBJ   D T1374      -2.404   2.633 -12.722  1.00 27.31     0.286 C 
ENDBRANCH  32  33
ENDBRANCH  31  32
TORSDOF 2
