REMARK  2 active torsions:
REMARK  status: ('A' for Active; 'I' for Inactive)
REMARK    1  A    between atoms: CBF_31  and  CBG_32 
REMARK    2  A    between atoms: CBG_32  and  NBH_33 
ROOT
HETATM    1  CBD   D T1374       6.629  13.209  -2.730  1.00 18.24     0.056 C 
HETATM    2  CBB   D T1374       5.160  13.044  -3.033  1.00 13.77     0.109 C 
HETATM    3  NAW   D T1374       4.213  13.062  -1.905  1.00 11.00    -0.326 N 
HETATM    4  CAV   D T1374       4.364  12.323  -0.748  1.00  9.70     0.076 A 
HETATM    5  CAX   D T1374       2.991  13.553  -1.894  1.00 10.89     0.060 A 
HETATM    6  CAY   D T1374       2.296  14.309  -2.859  1.00 13.31     0.017 A 
HETATM    7  CAZ   D T1374       0.980  14.737  -2.575  1.00 12.88     0.002 A 
HETATM    8  CAP   D T1374       0.346  14.457  -1.362  1.00 12.85     0.000 A 
HETATM    9  CAO   D T1374       1.037  13.682  -0.398  1.00 12.21     0.002 A 
HETATM   10  CAN   D T1374       2.367  13.223  -0.682  1.00 11.16     0.017 A 
HETATM   11  CAM   D T1374       3.282  12.481   0.064  1.00 10.47     0.023 A 
HETATM   12  CAH   D T1374       3.152  11.745   1.300  1.00 11.61     0.064 A 
HETATM   13  CAE   D T1374       1.989  10.988   1.660  1.00 11.67     0.282 A 
HETATM   14  OAF   D T1374       0.903  10.926   1.046  1.00 12.38    -0.265 OA
HETATM   15  NAD   D T1374       2.194  10.302   2.819  1.00 11.58    -0.169 NA
HETATM   16  CAC   D T1374       3.429  10.551   3.204  1.00 11.36     0.282 A 
HETATM   17  OAB   D T1374       3.936  10.015   4.201  1.00 13.28    -0.265 OA
HETATM   18  CAG   D T1374       4.101  11.461   2.336  1.00 10.54     0.064 A 
HETATM   19  CAL   D T1374       5.455  11.929   2.383  1.00 12.92     0.023 A 
HETATM   20  CAU   D T1374       5.833  13.122   1.849  1.00 12.44     0.076 A 
HETATM   21  CAK   D T1374       6.649  11.324   2.849  1.00 12.61     0.017 A 
HETATM   22  CAJ   D T1374       6.943  10.083   3.498  1.00 13.95     0.002 A 
HETATM   23  CAI   D T1374       8.279   9.800   3.804  1.00 15.63     0.000 A 
HETATM   24  CAQ   D T1374       9.321  10.688   3.492  1.00 14.37     0.002 A 
HETATM   25  CAR   D T1374       9.033  11.894   2.850  1.00 13.26     0.017 A 
HETATM   26  CAS   D T1374       7.693  12.197   2.532  1.00 11.92     0.060 A 
HETATM   27  NAT   D T1374       7.171  13.272   1.938  1.00 12.89    -0.324 N 
HETATM   28  CBA   D T1374       7.864  14.464   1.374  1.00 13.69     0.138 C 
HETATM   29  CBC   D T1374       8.128  14.138  -0.104  1.00 16.12     0.167 C 
HETATM   30  OBE   D T1374       6.909  14.564  -0.762  1.00 16.41    -0.352 OA
HETATM   31  CBF   D T1374       6.955  14.605  -2.196  1.00 19.48     0.151 C 
ENDROOT
BRANCH  31  32
HETATM   32  CBG   D T1374       5.870  15.663  -2.510  1.00 23.41     0.280 C 
BRANCH  32  33
HETATM   33  NBH   D T1374       6.272  17.061  -2.139  1.00 26.24     0.144 N 
HETATM   34  CBI   D T1374       5.580  18.021  -3.016  1.00 27.90     0.286 C 
HETATM   35  CBJ   D T1374       5.796  17.421  -0.777  1.00 27.31     0.286 C 
ENDBRANCH  32  33
ENDBRANCH  31  32
TORSDOF 2
