REMARK  2 active torsions:
REMARK  status: ('A' for Active; 'I' for Inactive)
REMARK    1  A    between atoms: CBF_31  and  CBG_32 
REMARK    2  A    between atoms: CBG_32  and  NBH_33 
ROOT
HETATM    1  CBD   D T1374     -13.603   3.061  -1.626  1.00 18.24     0.056 C 
HETATM    2  CBB   D T1374     -12.334   3.723  -1.149  1.00 13.77     0.109 C 
HETATM    3  NAW   D T1374     -11.346   4.137  -2.160  1.00 11.00    -0.326 N 
HETATM    4  CAV   D T1374     -10.894   3.329  -3.186  1.00  9.70     0.076 A 
HETATM    5  CAX   D T1374     -10.562   5.194  -2.127  1.00 10.89     0.060 A 
HETATM    6  CAY   D T1374     -10.530   6.287  -1.237  1.00 13.31     0.017 A 
HETATM    7  CAZ   D T1374      -9.587   7.317  -1.450  1.00 12.88     0.002 A 
HETATM    8  CAP   D T1374      -8.696   7.305  -2.527  1.00 12.85     0.000 A 
HETATM    9  CAO   D T1374      -8.716   6.201  -3.413  1.00 12.21     0.002 A 
HETATM   10  CAN   D T1374      -9.655   5.136  -3.196  1.00 11.16     0.017 A 
HETATM   11  CAM   D T1374      -9.919   3.961  -3.896  1.00 10.47     0.023 A 
HETATM   12  CAH   D T1374      -9.219   3.297  -4.971  1.00 11.61     0.064 A 
HETATM   13  CAE   D T1374      -7.789   3.238  -5.076  1.00 11.67     0.282 A 
HETATM   14  OAF   D T1374      -6.951   3.813  -4.352  1.00 12.38    -0.265 OA
HETATM   15  NAD   D T1374      -7.410   2.446  -6.118  1.00 11.58    -0.169 NA
HETATM   16  CAC   D T1374      -8.511   1.972  -6.665  1.00 11.36     0.282 A 
HETATM   17  OAB   D T1374      -8.491   1.163  -7.605  1.00 13.28    -0.265 OA
HETATM   18  CAG   D T1374      -9.692   2.464  -6.036  1.00 10.54     0.064 A 
HETATM   19  CAL   D T1374     -11.063   2.142  -6.302  1.00 12.92     0.023 A 
HETATM   20  CAU   D T1374     -12.082   2.999  -6.018  1.00 12.44     0.076 A 
HETATM   21  CAK   D T1374     -11.682   0.959  -6.780  1.00 12.61     0.017 A 
HETATM   22  CAJ   D T1374     -11.185  -0.303  -7.238  1.00 13.95     0.002 A 
HETATM   23  CAI   D T1374     -12.115  -1.273  -7.629  1.00 15.63     0.000 A 
HETATM   24  CAQ   D T1374     -13.499  -1.044  -7.580  1.00 14.37     0.002 A 
HETATM   25  CAR   D T1374     -13.982   0.184  -7.123  1.00 13.26     0.017 A 
HETATM   26  CAS   D T1374     -13.061   1.175  -6.724  1.00 11.92     0.060 A 
HETATM   27  NAT   D T1374     -13.271   2.412  -6.269  1.00 12.89    -0.324 N 
HETATM   28  CBA   D T1374     -14.560   3.104  -5.988  1.00 13.69     0.138 C 
HETATM   29  CBC   D T1374     -14.877   2.822  -4.512  1.00 16.12     0.167 C 
HETATM   30  OBE   D T1374     -14.181   3.883  -3.812  1.00 16.41    -0.352 OA
HETATM   31  CBF   D T1374     -14.493   4.022  -2.417  1.00 19.48     0.151 C 
ENDROOT
BRANCH  31  32
HETATM   32  CBG   D T1374     -14.170   5.516  -2.176  1.00 23.41     0.280 C 
BRANCH  32  33
HETATM   33  NBH   D T1374     -15.153   6.453  -2.816  1.00 26.24     0.144 N 
HETATM   34  CBI   D T1374     -15.211   7.707  -2.046  1.00 27.90     0.286 C 
HETATM   35  CBJ   D T1374     -14.695   6.886  -4.162  1.00 27.31     0.286 C 
ENDBRANCH  32  33
ENDBRANCH  31  32
TORSDOF 2
