REMARK  2 active torsions:
REMARK  status: ('A' for Active; 'I' for Inactive)
REMARK    1  A    between atoms: CBF_31  and  CBG_32 
REMARK    2  A    between atoms: CBG_32  and  NBH_33 
ROOT
HETATM    1  CBD   D T1374       8.651  -1.277  -1.996  1.00 18.24     0.056 C 
HETATM    2  CBB   D T1374       7.477  -1.911  -2.701  1.00 13.77     0.109 C 
HETATM    3  NAW   D T1374       7.347  -1.704  -4.153  1.00 11.00    -0.326 N 
HETATM    4  CAV   D T1374       7.442  -0.475  -4.778  1.00  9.70     0.076 A 
HETATM    5  CAX   D T1374       6.885  -2.555  -5.045  1.00 10.89     0.060 A 
HETATM    6  CAY   D T1374       6.531  -3.914  -4.921  1.00 13.31     0.017 A 
HETATM    7  CAZ   D T1374       6.081  -4.612  -6.063  1.00 12.88     0.002 A 
HETATM    8  CAP   D T1374       5.993  -4.011  -7.322  1.00 12.85     0.000 A 
HETATM    9  CAO   D T1374       6.332  -2.641  -7.446  1.00 12.21     0.002 A 
HETATM   10  CAN   D T1374       6.772  -1.914  -6.288  1.00 11.16     0.017 A 
HETATM   11  CAM   D T1374       7.186  -0.595  -6.110  1.00 10.47     0.023 A 
HETATM   12  CAH   D T1374       7.137   0.559  -6.976  1.00 11.61     0.064 A 
HETATM   13  CAE   D T1374       6.048   0.844  -7.866  1.00 11.67     0.282 A 
HETATM   14  OAF   D T1374       5.060   0.122  -8.111  1.00 12.38    -0.265 OA
HETATM   15  NAD   D T1374       6.214   2.056  -8.467  1.00 11.58    -0.169 NA
HETATM   16  CAC   D T1374       7.326   2.576  -7.989  1.00 11.36     0.282 A 
HETATM   17  OAB   D T1374       7.716   3.712  -8.299  1.00 13.28    -0.265 OA
HETATM   18  CAG   D T1374       7.988   1.708  -7.071  1.00 10.54     0.064 A 
HETATM   19  CAL   D T1374       9.179   1.933  -6.306  1.00 12.92     0.023 A 
HETATM   20  CAU   D T1374       9.973   0.915  -5.876  1.00 12.44     0.076 A 
HETATM   21  CAK   D T1374       9.745   3.114  -5.763  1.00 12.61     0.017 A 
HETATM   22  CAJ   D T1374       9.398   4.501  -5.831  1.00 13.95     0.002 A 
HETATM   23  CAI   D T1374      10.198   5.415  -5.136  1.00 15.63     0.000 A 
HETATM   24  CAQ   D T1374      11.313   5.010  -4.383  1.00 14.37     0.002 A 
HETATM   25  CAR   D T1374      11.643   3.656  -4.310  1.00 13.26     0.017 A 
HETATM   26  CAS   D T1374      10.848   2.719  -5.003  1.00 11.92     0.060 A 
HETATM   27  NAT   D T1374      10.965   1.393  -5.096  1.00 12.89    -0.324 N 
HETATM   28  CBA   D T1374      11.948   0.487  -4.437  1.00 13.69     0.138 C 
HETATM   29  CBC   D T1374      11.296   0.045  -3.119  1.00 16.12     0.167 C 
HETATM   30  OBE   D T1374      10.519  -1.116  -3.503  1.00 16.41    -0.352 OA
HETATM   31  CBF   D T1374       9.983  -1.896  -2.423  1.00 19.48     0.151 C 
ENDROOT
BRANCH  31  32
HETATM   32  CBG   D T1374       9.843  -3.287  -3.086  1.00 23.41     0.280 C 
BRANCH  32  33
HETATM   33  NBH   D T1374      11.158  -3.963  -3.344  1.00 26.24     0.144 N 
HETATM   34  CBI   D T1374      10.974  -5.424  -3.318  1.00 27.90     0.286 C 
HETATM   35  CBJ   D T1374      11.648  -3.694  -4.722  1.00 27.31     0.286 C 
ENDBRANCH  32  33
ENDBRANCH  31  32
TORSDOF 2
