REMARK  2 active torsions:
REMARK  status: ('A' for Active; 'I' for Inactive)
REMARK    1  A    between atoms: CBF_31  and  CBG_32 
REMARK    2  A    between atoms: CBG_32  and  NBH_33 
ROOT
HETATM    1  CBD   D T1374      -8.726  -3.800  -4.262  1.00 18.24     0.056 C 
HETATM    2  CBB   D T1374      -7.745  -2.749  -3.803  1.00 13.77     0.109 C 
HETATM    3  NAW   D T1374      -6.425  -2.701  -4.454  1.00 11.00    -0.326 N 
HETATM    4  CAV   D T1374      -5.612  -3.802  -4.653  1.00  9.70     0.076 A 
HETATM    5  CAX   D T1374      -5.701  -1.634  -4.718  1.00 10.89     0.060 A 
HETATM    6  CAY   D T1374      -6.010  -0.263  -4.605  1.00 13.31     0.017 A 
HETATM    7  CAZ   D T1374      -5.041   0.691  -4.988  1.00 12.88     0.002 A 
HETATM    8  CAP   D T1374      -3.791   0.328  -5.497  1.00 12.85     0.000 A 
HETATM    9  CAO   D T1374      -3.473  -1.049  -5.596  1.00 12.21     0.002 A 
HETATM   10  CAN   D T1374      -4.441  -2.030  -5.191  1.00 11.16     0.017 A 
HETATM   11  CAM   D T1374      -4.422  -3.424  -5.195  1.00 10.47     0.023 A 
HETATM   12  CAH   D T1374      -3.360  -4.376  -5.421  1.00 11.61     0.064 A 
HETATM   13  CAE   D T1374      -2.011  -4.191  -4.968  1.00 11.67     0.282 A 
HETATM   14  OAF   D T1374      -1.526  -3.178  -4.423  1.00 12.38    -0.265 OA
HETATM   15  NAD   D T1374      -1.258  -5.300  -5.214  1.00 11.58    -0.169 NA
HETATM   16  CAC   D T1374      -2.053  -6.193  -5.768  1.00 11.36     0.282 A 
HETATM   17  OAB   D T1374      -1.671  -7.338  -6.051  1.00 13.28    -0.265 OA
HETATM   18  CAG   D T1374      -3.378  -5.703  -5.962  1.00 10.54     0.064 A 
HETATM   19  CAL   D T1374      -4.531  -6.382  -6.476  1.00 12.92     0.023 A 
HETATM   20  CAU   D T1374      -5.561  -5.722  -7.072  1.00 12.44     0.076 A 
HETATM   21  CAK   D T1374      -4.926  -7.742  -6.429  1.00 12.61     0.017 A 
HETATM   22  CAJ   D T1374      -4.312  -8.936  -5.933  1.00 13.95     0.002 A 
HETATM   23  CAI   D T1374      -5.022 -10.137  -6.043  1.00 15.63     0.000 A 
HETATM   24  CAQ   D T1374      -6.304 -10.197  -6.614  1.00 14.37     0.002 A 
HETATM   25  CAR   D T1374      -6.906  -9.029  -7.087  1.00 13.26     0.017 A 
HETATM   26  CAS   D T1374      -6.206  -7.809  -6.986  1.00 11.92     0.060 A 
HETATM   27  NAT   D T1374      -6.558  -6.581  -7.370  1.00 12.89    -0.324 N 
HETATM   28  CBA   D T1374      -7.837  -6.115  -7.976  1.00 13.69     0.138 C 
HETATM   29  CBC   D T1374      -8.729  -5.687  -6.801  1.00 16.12     0.167 C 
HETATM   30  OBE   D T1374      -8.355  -4.304  -6.585  1.00 16.41    -0.352 OA
HETATM   31  CBF   D T1374      -9.201  -3.558  -5.696  1.00 19.48     0.151 C 
ENDROOT
BRANCH  31  32
HETATM   32  CBG   D T1374      -8.974  -2.111  -6.195  1.00 23.41     0.280 C 
BRANCH  32  33
HETATM   33  NBH   D T1374      -9.596  -1.834  -7.532  1.00 26.24     0.144 N 
HETATM   34  CBI   D T1374      -9.936  -0.404  -7.630  1.00 27.90     0.286 C 
HETATM   35  CBJ   D T1374      -8.625  -2.042  -8.638  1.00 27.31     0.286 C 
ENDBRANCH  32  33
ENDBRANCH  31  32
TORSDOF 2
