REMARK  6 active torsions:
REMARK  status: ('A' for Active; 'I' for Inactive)
REMARK    1  A    between atoms: NBC_2  and  CBB_4 
REMARK    2  A    between atoms: CBB_4  and  CBA_5 
REMARK    3  A    between atoms: CBA_5  and  CAY_6 
REMARK    4  A    between atoms: CAY_6  and  NAH_7 
REMARK    5  A    between atoms: CAG_15  and  CAI_16 
REMARK    6  A    between atoms: CAJ_22  and  CAK_23 
ROOT
HETATM    1  CAI   D T1368      -9.278   3.080  -4.921  1.00 47.54     0.064 A 
HETATM    2  CAT   D T1368      -7.908   3.250  -5.107  1.00 46.36     0.282 A 
HETATM    3  OAZ   D T1368      -7.140   3.950  -4.452  1.00 44.28    -0.265 OA
HETATM    4  NAU   D T1368      -7.580   2.459  -6.127  1.00 46.45    -0.169 NA
HETATM    5  CAV   D T1368      -8.611   1.781  -6.631  1.00 47.61     0.282 A 
HETATM    6  OAX   D T1368      -8.581   0.964  -7.547  1.00 47.90    -0.265 OA
HETATM    7  CAJ   D T1368      -9.715   2.170  -5.877  1.00 48.30     0.064 A 
ENDROOT
BRANCH   1   8
HETATM    8  CAG   D T1368     -10.003   3.643  -3.873  1.00 49.01     0.023 A 
HETATM    9  CAW   D T1368     -10.925   2.932  -3.225  1.00 50.91     0.076 A 
HETATM   10  NAH   D T1368     -11.397   3.687  -2.227  1.00 50.74    -0.326 N 
HETATM   11  CAE   D T1368     -10.820   4.887  -2.193  1.00 49.51     0.060 A 
HETATM   12  CAF   D T1368     -10.932   5.992  -1.355  1.00 49.09     0.017 A 
HETATM   13  CAD   D T1368      -9.915   4.878  -3.247  1.00 48.06     0.017 A 
HETATM   14  CAA   D T1368     -10.120   7.100  -1.577  1.00 50.27     0.002 A 
HETATM   15  CAB   D T1368      -9.209   7.099  -2.630  1.00 50.31     0.000 A 
HETATM   16  CAC   D T1368      -9.108   5.989  -3.466  1.00 49.26     0.002 A 
BRANCH  10  17
HETATM   17  CAY   D T1368     -12.362   3.225  -1.217  1.00 53.65     0.108 C 
BRANCH  17  18
HETATM   18  CBA   D T1368     -13.368   2.196  -1.744  1.00 61.14     0.048 C 
BRANCH  18  19
HETATM   19  CBB   D T1368     -14.518   2.822  -2.539  1.00 65.34     0.099 C 
BRANCH  19  20
HETATM   20  NBC   D T1368     -15.523   3.514  -1.708  1.00 68.16    -0.365 N 
HETATM   21  CBD   D T1368     -16.117   4.727  -2.285  1.00 68.53     0.121 C 
HETATM   22  CBE   D T1368     -15.436   3.431  -0.241  1.00 68.44     0.121 C 
ENDBRANCH  19  20
ENDBRANCH  18  19
ENDBRANCH  17  18
ENDBRANCH  10  17
ENDBRANCH   1   8
BRANCH   7  23
HETATM   23  CAK   D T1368     -11.021   1.743  -6.115  1.00 49.21     0.025 A 
HETATM   24  CAM   D T1368     -12.247   2.383  -6.039  1.00 47.19     0.019 A 
HETATM   25  CAP   D T1368     -12.627   3.672  -5.677  1.00 47.05     0.002 A 
HETATM   26  CAN   D T1368     -13.217   1.463  -6.411  1.00 48.17     0.081 A 
HETATM   27  CAQ   D T1368     -13.974   4.026  -5.684  1.00 49.31     0.000 A 
HETATM   28  CAR   D T1368     -14.943   3.097  -6.054  1.00 47.76     0.002 A 
HETATM   29  CAS   D T1368     -14.565   1.810  -6.422  1.00 48.79     0.019 A 
HETATM   30  NAO   D T1368     -12.556   0.340  -6.695  1.00 49.87    -0.244 NA
HETATM   31  CAL   D T1368     -11.241   0.495  -6.525  1.00 50.14     0.099 A 
ENDBRANCH   7  23
TORSDOF 6
