REMARK  6 active torsions:
REMARK  status: ('A' for Active; 'I' for Inactive)
REMARK    1  A    between atoms: NBC_2  and  CBB_4 
REMARK    2  A    between atoms: CBB_4  and  CBA_5 
REMARK    3  A    between atoms: CBA_5  and  CAY_6 
REMARK    4  A    between atoms: CAY_6  and  NAH_7 
REMARK    5  A    between atoms: CAG_15  and  CAI_16 
REMARK    6  A    between atoms: CAJ_22  and  CAK_23 
ROOT
HETATM    1  CAI   D T1368      -1.189  -3.315 -11.319  1.00 47.54     0.064 A 
HETATM    2  CAT   D T1368      -0.216  -4.310 -11.267  1.00 46.36     0.282 A 
HETATM    3  OAZ   D T1368       0.842  -4.298 -10.644  1.00 44.28    -0.265 OA
HETATM    4  NAU   D T1368      -0.685  -5.314 -12.008  1.00 46.45    -0.169 NA
HETATM    5  CAV   D T1368      -1.881  -5.069 -12.542  1.00 47.61     0.282 A 
HETATM    6  OAX   D T1368      -2.549  -5.832 -13.236  1.00 47.90    -0.265 OA
HETATM    7  CAJ   D T1368      -2.222  -3.788 -12.120  1.00 48.30     0.064 A 
ENDROOT
BRANCH   1   8
HETATM    8  CAG   D T1368      -1.144  -2.135 -10.579  1.00 49.01     0.023 A 
HETATM    9  CAW   D T1368      -2.238  -1.663  -9.983  1.00 50.91     0.076 A 
HETATM   10  NAH   D T1368      -1.888  -0.579  -9.284  1.00 50.74    -0.326 N 
HETATM   11  CAE   D T1368      -0.590  -0.307  -9.400  1.00 49.51     0.060 A 
HETATM   12  CAF   D T1368       0.250   0.662  -8.861  1.00 49.09     0.017 A 
HETATM   13  CAD   D T1368      -0.090  -1.302 -10.231  1.00 48.06     0.017 A 
HETATM   14  CAA   D T1368       1.610   0.628  -9.157  1.00 50.27     0.002 A 
HETATM   15  CAB   D T1368       2.119  -0.367  -9.987  1.00 50.31     0.000 A 
HETATM   16  CAC   D T1368       1.269  -1.330 -10.526  1.00 49.26     0.002 A 
BRANCH  10  17
HETATM   17  CAY   D T1368      -2.796   0.175  -8.404  1.00 53.65     0.108 C 
BRANCH  17  18
HETATM   18  CBA   D T1368      -4.253   0.188  -8.880  1.00 61.14     0.048 C 
BRANCH  18  19
HETATM   19  CBB   D T1368      -4.517   1.201 -10.000  1.00 65.34     0.099 C 
BRANCH  19  20
HETATM   20  NBC   D T1368      -4.555   2.605  -9.550  1.00 68.16    -0.365 N 
HETATM   21  CBD   D T1368      -4.005   3.599 -10.482  1.00 68.53     0.121 C 
HETATM   22  CBE   D T1368      -4.490   2.911  -8.112  1.00 68.44     0.121 C 
ENDBRANCH  19  20
ENDBRANCH  18  19
ENDBRANCH  17  18
ENDBRANCH  10  17
ENDBRANCH   1   8
BRANCH   7  23
HETATM   23  CAK   D T1368      -3.379  -3.113 -12.508  1.00 49.21     0.025 A 
HETATM   24  CAM   D T1368      -3.635  -1.786 -12.812  1.00 47.19     0.019 A 
HETATM   25  CAP   D T1368      -2.842  -0.641 -12.820  1.00 47.05     0.002 A 
HETATM   26  CAN   D T1368      -4.975  -1.692 -13.156  1.00 48.17     0.081 A 
HETATM   27  CAQ   D T1368      -3.401   0.587 -13.164  1.00 49.31     0.000 A 
HETATM   28  CAR   D T1368      -4.748   0.676 -13.505  1.00 47.76     0.002 A 
HETATM   29  CAS   D T1368      -5.541  -0.468 -13.504  1.00 48.79     0.019 A 
HETATM   30  NAO   D T1368      -5.459  -2.930 -13.056  1.00 49.87    -0.244 NA
HETATM   31  CAL   D T1368      -4.513  -3.790 -12.671  1.00 50.14     0.099 A 
ENDBRANCH   7  23
TORSDOF 6
