REMARK  6 active torsions:
REMARK  status: ('A' for Active; 'I' for Inactive)
REMARK    1  A    between atoms: NBC_2  and  CBB_4 
REMARK    2  A    between atoms: CBB_4  and  CBA_5 
REMARK    3  A    between atoms: CBA_5  and  CAY_6 
REMARK    4  A    between atoms: CAY_6  and  NAH_7 
REMARK    5  A    between atoms: CAG_15  and  CAI_16 
REMARK    6  A    between atoms: CAJ_22  and  CAK_23 
ROOT
HETATM    1  CAI   D T1368      -3.430  -4.544  -5.264  1.00 47.54     0.064 A 
HETATM    2  CAT   D T1368      -2.099  -4.215  -5.017  1.00 46.36     0.282 A 
HETATM    3  OAZ   D T1368      -1.649  -3.145  -4.617  1.00 44.28    -0.265 OA
HETATM    4  NAU   D T1368      -1.401  -5.322  -5.265  1.00 46.45    -0.169 NA
HETATM    5  CAV   D T1368      -2.152  -6.352  -5.653  1.00 47.61     0.282 A 
HETATM    6  OAX   D T1368      -1.768  -7.489  -5.912  1.00 47.90    -0.265 OA
HETATM    7  CAJ   D T1368      -3.459  -5.874  -5.668  1.00 48.30     0.064 A 
ENDROOT
BRANCH   1   8
HETATM    8  CAG   D T1368      -4.507  -3.696  -5.012  1.00 49.01     0.023 A 
HETATM    9  CAW   D T1368      -5.625  -4.163  -4.457  1.00 50.91     0.076 A 
HETATM   10  NAH   D T1368      -6.446  -3.128  -4.257  1.00 50.74    -0.326 N 
HETATM   11  CAE   D T1368      -5.911  -1.979  -4.668  1.00 49.51     0.060 A 
HETATM   12  CAF   D T1368      -6.331  -0.653  -4.652  1.00 49.09     0.017 A 
HETATM   13  CAD   D T1368      -4.657  -2.324  -5.157  1.00 48.06     0.017 A 
HETATM   14  CAA   D T1368      -5.480   0.338  -5.129  1.00 50.27     0.002 A 
HETATM   15  CAB   D T1368      -4.221   0.001  -5.619  1.00 50.31     0.000 A 
HETATM   16  CAC   D T1368      -3.811  -1.330  -5.635  1.00 49.26     0.002 A 
BRANCH  10  17
HETATM   17  CAY   D T1368      -7.745  -3.214  -3.571  1.00 53.65     0.108 C 
BRANCH  17  18
HETATM   18  CBA   D T1368      -8.470  -4.548  -3.781  1.00 61.14     0.048 C 
BRANCH  18  19
HETATM   19  CBB   D T1368      -9.190  -4.642  -5.130  1.00 65.34     0.099 C 
BRANCH  19  20
HETATM   20  NBC   D T1368     -10.431  -3.850  -5.212  1.00 68.16    -0.365 N 
HETATM   21  CBD   D T1368     -10.720  -3.229  -6.512  1.00 68.53     0.121 C 
HETATM   22  CBE   D T1368     -10.947  -3.178  -4.008  1.00 68.44     0.121 C 
ENDBRANCH  19  20
ENDBRANCH  18  19
ENDBRANCH  17  18
ENDBRANCH  10  17
ENDBRANCH   1   8
BRANCH   7  23
HETATM   23  CAK   D T1368      -4.564  -6.616  -6.081  1.00 49.21     0.025 A 
HETATM   24  CAM   D T1368      -5.705  -6.285  -6.794  1.00 47.19     0.019 A 
HETATM   25  CAP   D T1368      -6.176  -5.092  -7.336  1.00 47.05     0.002 A 
HETATM   26  CAN   D T1368      -6.458  -7.442  -6.929  1.00 48.17     0.081 A 
HETATM   27  CAQ   D T1368      -7.398  -5.068  -8.002  1.00 49.31     0.000 A 
HETATM   28  CAR   D T1368      -8.152  -6.232  -8.132  1.00 47.76     0.002 A 
HETATM   29  CAS   D T1368      -7.681  -7.426  -7.596  1.00 48.79     0.019 A 
HETATM   30  NAO   D T1368      -5.760  -8.399  -6.318  1.00 49.87    -0.244 NA
HETATM   31  CAL   D T1368      -4.622  -7.918  -5.808  1.00 50.14     0.099 A 
ENDBRANCH   7  23
TORSDOF 6
