REMARK  6 active torsions:
REMARK  status: ('A' for Active; 'I' for Inactive)
REMARK    1  A    between atoms: NBC_2  and  CBB_4 
REMARK    2  A    between atoms: CBB_4  and  CBA_5 
REMARK    3  A    between atoms: CBA_5  and  CAY_6 
REMARK    4  A    between atoms: CAY_6  and  NAH_7 
REMARK    5  A    between atoms: CAG_15  and  CAI_16 
REMARK    6  A    between atoms: CAJ_22  and  CAK_23 
ROOT
HETATM    1  CAI   D T1368       0.826   5.083   7.118  1.00 47.54     0.064 A 
HETATM    2  CAT   D T1368      -0.452   4.533   7.174  1.00 46.36     0.282 A 
HETATM    3  OAZ   D T1368      -1.384   4.711   6.395  1.00 44.28    -0.265 OA
HETATM    4  NAU   D T1368      -0.452   3.727   8.236  1.00 46.45    -0.169 NA
HETATM    5  CAV   D T1368       0.712   3.697   8.884  1.00 47.61     0.282 A 
HETATM    6  OAX   D T1368       0.990   3.019   9.869  1.00 47.90    -0.265 OA
HETATM    7  CAJ   D T1368       1.547   4.567   8.189  1.00 48.30     0.064 A 
ENDROOT
BRANCH   1   8
HETATM    8  CAG   D T1368       1.285   5.896   6.083  1.00 49.01     0.023 A 
HETATM    9  CAW   D T1368       2.510   5.734   5.583  1.00 50.91     0.076 A 
HETATM   10  NAH   D T1368       2.649   6.583   4.559  1.00 50.74    -0.326 N 
HETATM   11  CAE   D T1368       1.553   7.313   4.363  1.00 49.51     0.060 A 
HETATM   12  CAF   D T1368       1.188   8.284   3.435  1.00 49.09     0.017 A 
HETATM   13  CAD   D T1368       0.659   6.883   5.336  1.00 48.06     0.017 A 
HETATM   14  CAA   D T1368      -0.093   8.825   3.483  1.00 50.27     0.002 A 
HETATM   15  CAB   D T1368      -0.996   8.398   4.454  1.00 50.31     0.000 A 
HETATM   16  CAC   D T1368      -0.619   7.430   5.382  1.00 49.26     0.002 A 
BRANCH  10  17
HETATM   17  CAY   D T1368       3.828   6.642   3.679  1.00 53.65     0.108 C 
BRANCH  17  18
HETATM   18  CBA   D T1368       5.145   6.298   4.383  1.00 61.14     0.048 C 
BRANCH  18  19
HETATM   19  CBB   D T1368       5.715   7.459   5.205  1.00 65.34     0.099 C 
BRANCH  19  20
HETATM   20  NBC   D T1368       6.321   8.533   4.396  1.00 68.16    -0.365 N 
HETATM   21  CBD   D T1368       6.146   9.902   4.901  1.00 68.53     0.121 C 
HETATM   22  CBE   D T1368       6.464   8.358   2.942  1.00 68.44     0.121 C 
ENDBRANCH  19  20
ENDBRANCH  18  19
ENDBRANCH  17  18
ENDBRANCH  10  17
ENDBRANCH   1   8
BRANCH   7  23
HETATM   23  CAK   D T1368       2.850   4.881   8.572  1.00 49.21     0.025 A 
HETATM   24  CAM   D T1368       3.582   6.057   8.535  1.00 47.19     0.019 A 
HETATM   25  CAP   D T1368       3.297   7.343   8.083  1.00 47.05     0.002 A 
HETATM   26  CAN   D T1368       4.832   5.782   9.070  1.00 48.17     0.081 A 
HETATM   27  CAQ   D T1368       4.267   8.338   8.165  1.00 49.31     0.000 A 
HETATM   28  CAR   D T1368       5.521   8.055   8.701  1.00 47.76     0.002 A 
HETATM   29  CAS   D T1368       5.807   6.773   9.158  1.00 48.79     0.019 A 
HETATM   30  NAO   D T1368       4.803   4.493   9.406  1.00 49.87    -0.244 NA
HETATM   31  CAL   D T1368       3.621   3.942   9.116  1.00 50.14     0.099 A 
ENDBRANCH   7  23
TORSDOF 6
