REMARK  6 active torsions:
REMARK  status: ('A' for Active; 'I' for Inactive)
REMARK    1  A    between atoms: NBC_2  and  CBB_4 
REMARK    2  A    between atoms: CBB_4  and  CBA_5 
REMARK    3  A    between atoms: CBA_5  and  CAY_6 
REMARK    4  A    between atoms: CAY_6  and  NAH_7 
REMARK    5  A    between atoms: CAG_15  and  CAI_16 
REMARK    6  A    between atoms: CAJ_22  and  CAK_23 
ROOT
HETATM    1  CAI   D T1368       7.134   0.726  -6.826  1.00 47.54     0.064 A 
HETATM    2  CAT   D T1368       6.179   0.838  -7.834  1.00 46.36     0.282 A 
HETATM    3  OAZ   D T1368       5.306   0.030  -8.138  1.00 44.28    -0.265 OA
HETATM    4  NAU   D T1368       6.376   2.033  -8.387  1.00 46.45    -0.169 NA
HETATM    5  CAV   D T1368       7.375   2.720  -7.834  1.00 47.61     0.282 A 
HETATM    6  OAX   D T1368       7.744   3.854  -8.130  1.00 47.90    -0.265 OA
HETATM    7  CAJ   D T1368       7.882   1.897  -6.833  1.00 48.30     0.064 A 
ENDROOT
BRANCH   1   8
HETATM    8  CAG   D T1368       7.198  -0.332  -5.921  1.00 49.01     0.023 A 
HETATM    9  CAW   D T1368       7.435  -0.108  -4.628  1.00 50.91     0.076 A 
HETATM   10  NAH   D T1368       7.360  -1.280  -3.990  1.00 50.74    -0.326 N 
HETATM   11  CAE   D T1368       7.084  -2.285  -4.820  1.00 49.51     0.060 A 
HETATM   12  CAF   D T1368       6.874  -3.650  -4.654  1.00 49.09     0.017 A 
HETATM   13  CAD   D T1368       6.974  -1.693  -6.072  1.00 48.06     0.017 A 
HETATM   14  CAA   D T1368       6.544  -4.429  -5.759  1.00 50.27     0.002 A 
HETATM   15  CAB   D T1368       6.430  -3.843  -7.017  1.00 50.31     0.000 A 
HETATM   16  CAC   D T1368       6.647  -2.476  -7.174  1.00 49.26     0.002 A 
BRANCH  10  17
HETATM   17  CAY   D T1368       7.464  -1.443  -2.531  1.00 53.65     0.108 C 
BRANCH  17  18
HETATM   18  CBA   D T1368       8.396  -0.430  -1.858  1.00 61.14     0.048 C 
BRANCH  18  19
HETATM   19  CBB   D T1368       9.880  -0.788  -1.991  1.00 65.34     0.099 C 
BRANCH  19  20
HETATM   20  NBC   D T1368      10.315  -1.901  -1.126  1.00 68.16    -0.365 N 
HETATM   21  CBD   D T1368      11.330  -2.803  -1.689  1.00 68.53     0.121 C 
HETATM   22  CBE   D T1368       9.381  -2.463  -0.137  1.00 68.44     0.121 C 
ENDBRANCH  19  20
ENDBRANCH  18  19
ENDBRANCH  17  18
ENDBRANCH  10  17
ENDBRANCH   1   8
BRANCH   7  23
HETATM   23  CAK   D T1368       8.988   2.209  -6.043  1.00 49.21     0.025 A 
HETATM   24  CAM   D T1368      10.029   1.445  -5.541  1.00 47.19     0.019 A 
HETATM   25  CAP   D T1368      10.340   0.090  -5.620  1.00 47.05     0.002 A 
HETATM   26  CAN   D T1368      10.861   2.297  -4.829  1.00 48.17     0.081 A 
HETATM   27  CAQ   D T1368      11.476  -0.399  -4.981  1.00 49.31     0.000 A 
HETATM   28  CAR   D T1368      12.306   0.461  -4.266  1.00 47.76     0.002 A 
HETATM   29  CAS   D T1368      12.000   1.816  -4.190  1.00 48.79     0.019 A 
HETATM   30  NAO   D T1368      10.310   3.507  -4.933  1.00 49.87    -0.244 NA
HETATM   31  CAL   D T1368       9.189   3.468  -5.660  1.00 50.14     0.099 A 
ENDBRANCH   7  23
TORSDOF 6
