REMARK  4 active torsions:
REMARK  status: ('A' for Active; 'I' for Inactive)
REMARK    1  A    between atoms: C4_6  and  C5_7 
REMARK    2  A    between atoms: C5_7  and  C6_8 
REMARK    3  A    between atoms: C5_7  and  C12_16 
REMARK    4  A    between atoms: C21_27  and  C22_28 
ROOT
HETATM    1  C12   D T   1      23.394 -16.096  -5.355  1.00 23.69     0.021 A 
HETATM    2  C13   D T   1      23.726 -14.827  -5.842  1.00 23.69    -0.000 A 
HETATM    3  C14   D T   1      23.968 -13.700  -5.051  1.00 23.69     0.016 A 
HETATM    4  C15   D T   1      23.332 -16.258  -3.921  1.00 23.69    -0.000 A 
HETATM    5  C16   D T   1      23.537 -15.172  -3.015  1.00 23.69     0.017 A 
HETATM    6  C17   D T   1      23.904 -13.895  -3.490  1.00 23.69     0.062 A 
HETATM    7  N4    D T   1      24.106 -12.775  -2.661  1.00 23.69    -0.294 N 
HETATM    8  C18   D T   1      24.020 -12.951  -1.190  1.00 23.69     0.134 C 
HETATM    9  C19   D T   1      24.456 -11.483  -3.200  1.00 23.69     0.261 A 
HETATM   10  O1    D T   1      24.654 -10.506  -2.468  1.00 23.69    -0.267 OA
HETATM   11  C20   D T   1      24.534 -11.341  -4.601  1.00 23.69     0.061 A 
HETATM   12  C21   D T   1      24.302 -12.412  -5.530  1.00 23.69     0.006 A 
ENDROOT
BRANCH   1  13
HETATM   13  C5    D T   1      23.141 -17.300  -6.316  1.00 23.69     0.338 C 
HETATM   14  N3    D T   1      23.905 -18.517  -5.885  1.00 23.69     0.628 N 
BRANCH  13  15
HETATM   15  C4    D T   1      21.642 -17.706  -6.180  1.00 23.69     0.100 A 
HETATM   16  N1    D T   1      21.125 -18.781  -6.925  1.00 23.69    -0.308 N 
HETATM   17  C1    D T   1      21.752 -19.702  -7.853  1.00 23.69     0.132 C 
HETATM   18  C2    D T   1      19.813 -18.829  -6.556  1.00 23.69     0.178 A 
HETATM   19  N2    D T   1      19.444 -17.921  -5.694  1.00 23.69    -0.223 NA
HETATM   20  C3    D T   1      20.578 -17.200  -5.455  1.00 23.69     0.116 A 
ENDBRANCH  13  15
BRANCH  13  21
HETATM   21  C6    D T   1      23.482 -16.884  -7.824  1.00 23.69     0.003 A 
HETATM   22  C7    D T   1      22.611 -16.007  -8.609  1.00 23.69     0.051 A 
HETATM   23  C8    D T   1      22.932 -15.665  -9.968  1.00 23.69    -0.010 A 
HETATM   24  C9    D T   1      24.144 -16.128 -10.548  1.00 23.69     0.054 A 
HETATM   25 CL1    D T   1      24.527 -15.688 -12.143  1.00 23.69    -0.083 Cl
HETATM   26  C10   D T   1      25.015 -16.993  -9.802  1.00 23.69     0.011 A 
HETATM   27  C11   D T   1      24.699 -17.338  -8.474  1.00 23.69    -0.005 A 
ENDBRANCH  13  21
ENDBRANCH   1  13
BRANCH  12  28
HETATM   28  C22   D T   1      24.427 -12.074  -6.972  1.00 23.69     0.001 A 
HETATM   29  C23   D T   1      23.357 -12.322  -7.864  1.00 23.69     0.011 A 
HETATM   30  C24   D T   1      23.460 -11.978  -9.264  1.00 23.69     0.058 A 
HETATM   31 CL2    D T   1      22.170 -12.258 -10.321  1.00 23.69    -0.082 Cl
HETATM   32  C25   D T   1      24.693 -11.418  -9.780  1.00 23.69     0.011 A 
HETATM   33  C26   D T   1      25.786 -11.178  -8.863  1.00 23.69     0.001 A 
HETATM   34  C27   D T   1      25.649 -11.517  -7.465  1.00 23.69     0.000 A 
ENDBRANCH  12  28
TORSDOF 4
