REMARK  4 active torsions:
REMARK  status: ('A' for Active; 'I' for Inactive)
REMARK    1  A    between atoms: C4_6  and  C5_7 
REMARK    2  A    between atoms: C5_7  and  C6_8 
REMARK    3  A    between atoms: C5_7  and  C12_16 
REMARK    4  A    between atoms: C21_27  and  C22_28 
ROOT
HETATM    1  C12   D T   1      24.386 -10.140 -11.006  1.00 23.69     0.021 A 
HETATM    2  C13   D T   1      24.301  -8.903 -11.655  1.00 23.69    -0.000 A 
HETATM    3  C14   D T   1      24.727  -7.684 -11.120  1.00 23.69     0.016 A 
HETATM    4  C15   D T   1      24.992 -10.159  -9.696  1.00 23.69    -0.000 A 
HETATM    5  C16   D T   1      25.442  -8.971  -9.040  1.00 23.69     0.017 A 
HETATM    6  C17   D T   1      25.393  -7.722  -9.694  1.00 23.69     0.062 A 
HETATM    7  N4    D T   1      25.801  -6.510  -9.107  1.00 23.69    -0.294 N 
HETATM    8  C18   D T   1      26.405  -6.540  -7.751  1.00 23.69     0.134 C 
HETATM    9  C19   D T   1      25.706  -5.254  -9.810  1.00 23.69     0.261 A 
HETATM   10  O1    D T   1      26.086  -4.192  -9.300  1.00 23.69    -0.267 OA
HETATM   11  C20   D T   1      25.131  -5.249 -11.098  1.00 23.69     0.061 A 
HETATM   12  C21   D T   1      24.646  -6.427 -11.763  1.00 23.69     0.006 A 
ENDROOT
BRANCH   1  13
HETATM   13  C5    D T   1      23.885 -11.454 -11.683  1.00 23.69     0.338 C 
HETATM   14  N3    D T   1      24.908 -12.547 -11.587  1.00 23.69     0.628 N 
BRANCH  13  15
HETATM   15  C4    D T   1      22.669 -11.977 -10.859  1.00 23.69     0.100 A 
HETATM   16  N1    D T   1      22.015 -13.164 -11.230  1.00 23.69    -0.308 N 
HETATM   17  C1    D T   1      22.271 -14.116 -12.293  1.00 23.69     0.132 C 
HETATM   18  C2    D T   1      21.024 -13.292 -10.301  1.00 23.69     0.178 A 
HETATM   19  N2    D T   1      20.967 -12.336  -9.413  1.00 23.69    -0.223 NA
HETATM   20  C3    D T   1      21.987 -11.497  -9.755  1.00 23.69     0.116 A 
ENDBRANCH  13  15
BRANCH  13  21
HETATM   21  C6    D T   1      23.459 -11.167 -13.200  1.00 23.69     0.003 A 
HETATM   22  C7    D T   1      22.226 -10.457 -13.545  1.00 23.69     0.051 A 
HETATM   23  C8    D T   1      21.859 -10.229 -14.916  1.00 23.69    -0.010 A 
HETATM   24  C9    D T   1      22.731 -10.638 -15.961  1.00 23.69     0.054 A 
HETATM   25 CL1    D T   1      22.302 -10.332 -17.575  1.00 23.69    -0.083 Cl
HETATM   26  C10   D T   1      23.946 -11.340 -15.651  1.00 23.69     0.011 A 
HETATM   27  C11   D T   1      24.304 -11.574 -14.309  1.00 23.69    -0.005 A 
ENDBRANCH  13  21
ENDBRANCH   1  13
BRANCH  12  28
HETATM   28  C22   D T   1      24.069  -6.229 -13.119  1.00 23.69     0.001 A 
HETATM   29  C23   D T   1      22.754  -6.662 -13.411  1.00 23.69     0.011 A 
HETATM   30  C24   D T   1      22.175  -6.456 -14.720  1.00 23.69     0.058 A 
HETATM   31 CL2    D T   1      20.596  -6.957 -15.056  1.00 23.69    -0.082 Cl
HETATM   32  C25   D T   1      22.966  -5.844 -15.769  1.00 23.69     0.011 A 
HETATM   33  C26   D T   1      24.314  -5.414 -15.464  1.00 23.69     0.001 A 
HETATM   34  C27   D T   1      24.860  -5.619 -14.143  1.00 23.69     0.000 A 
ENDBRANCH  12  28
TORSDOF 4
