REMARK  4 active torsions:
REMARK  status: ('A' for Active; 'I' for Inactive)
REMARK    1  A    between atoms: C4_6  and  C5_7 
REMARK    2  A    between atoms: C5_7  and  C6_8 
REMARK    3  A    between atoms: C5_7  and  C12_16 
REMARK    4  A    between atoms: C21_27  and  C22_28 
ROOT
HETATM    1  C12   D T   1       2.151  13.259  -6.327  1.00 23.69     0.021 A 
HETATM    2  C13   D T   1       0.846  12.757  -6.262  1.00 23.69    -0.000 A 
HETATM    3  C14   D T   1      -0.236  13.406  -5.662  1.00 23.69     0.016 A 
HETATM    4  C15   D T   1       2.386  14.565  -5.757  1.00 23.69    -0.000 A 
HETATM    5  C16   D T   1       1.361  15.310  -5.096  1.00 23.69     0.017 A 
HETATM    6  C17   D T   1       0.034  14.833  -5.052  1.00 23.69     0.062 A 
HETATM    7  N4    D T   1      -1.022  15.502  -4.406  1.00 23.69    -0.294 N 
HETATM    8  C18   D T   1      -0.763  16.835  -3.806  1.00 23.69     0.134 C 
HETATM    9  C19   D T   1      -2.358  14.957  -4.367  1.00 23.69     0.261 A 
HETATM   10  O1    D T   1      -3.289  15.558  -3.818  1.00 23.69    -0.267 OA
HETATM   11  C20   D T   1      -2.581  13.690  -4.945  1.00 23.69     0.061 A 
HETATM   12  C21   D T   1      -1.558  12.911  -5.588  1.00 23.69     0.006 A 
ENDROOT
BRANCH   1  13
HETATM   13  C5    D T   1       3.299  12.462  -7.021  1.00 23.69     0.338 C 
HETATM   14  N3    D T   1       4.070  13.327  -7.974  1.00 23.69     0.628 N 
BRANCH  13  15
HETATM   15  C4    D T   1       4.333  12.067  -5.922  1.00 23.69     0.100 A 
HETATM   16  N1    D T   1       5.491  11.347  -6.260  1.00 23.69    -0.308 N 
HETATM   17  C1    D T   1       5.999  10.878  -7.534  1.00 23.69     0.132 C 
HETATM   18  C2    D T   1       6.131  11.184  -5.066  1.00 23.69     0.178 A 
HETATM   19  N2    D T   1       5.518  11.694  -4.032  1.00 23.69    -0.223 NA
HETATM   20  C3    D T   1       4.381  12.243  -4.551  1.00 23.69     0.116 A 
ENDBRANCH  13  15
BRANCH  13  21
HETATM   21  C6    D T   1       2.711  11.158  -7.741  1.00 23.69     0.003 A 
HETATM   22  C7    D T   1       2.277   9.979  -6.989  1.00 23.69     0.051 A 
HETATM   23  C8    D T   1       1.769   8.815  -7.663  1.00 23.69    -0.010 A 
HETATM   24  C9    D T   1       1.623   8.821  -9.077  1.00 23.69     0.054 A 
HETATM   25 CL1    D T   1       0.990   7.451  -9.856  1.00 23.69    -0.083 Cl
HETATM   26  C10   D T   1       2.044   9.964  -9.839  1.00 23.69     0.011 A 
HETATM   27  C11   D T   1       2.551  11.102  -9.184  1.00 23.69    -0.005 A 
ENDBRANCH  13  21
ENDBRANCH   1  13
BRANCH  12  28
HETATM   28  C22   D T   1      -1.979  11.595  -6.139  1.00 23.69     0.001 A 
HETATM   29  C23   D T   1      -1.322  10.407  -5.741  1.00 23.69     0.011 A 
HETATM   30  C24   D T   1      -1.737   9.120  -6.255  1.00 23.69     0.058 A 
HETATM   31 CL2    D T   1      -0.961   7.701  -5.761  1.00 23.69    -0.082 Cl
HETATM   32  C25   D T   1      -2.806   9.044  -7.230  1.00 23.69     0.011 A 
HETATM   33  C26   D T   1      -3.465  10.266  -7.638  1.00 23.69     0.001 A 
HETATM   34  C27   D T   1      -3.040  11.536  -7.097  1.00 23.69     0.000 A 
ENDBRANCH  12  28
TORSDOF 4
