REMARK  4 active torsions:
REMARK  status: ('A' for Active; 'I' for Inactive)
REMARK    1  A    between atoms: C4_6  and  C5_7 
REMARK    2  A    between atoms: C5_7  and  C6_8 
REMARK    3  A    between atoms: C5_7  and  C12_16 
REMARK    4  A    between atoms: C21_27  and  C22_28 
ROOT
HETATM    1  C12   D T   1      -1.161  12.370  -6.197  1.00 23.69     0.021 A 
HETATM    2  C13   D T   1      -2.316  11.770  -5.684  1.00 23.69    -0.000 A 
HETATM    3  C14   D T   1      -3.177  12.352  -4.749  1.00 23.69     0.016 A 
HETATM    4  C15   D T   1      -0.856  13.709  -5.749  1.00 23.69    -0.000 A 
HETATM    5  C16   D T   1      -1.651  14.393  -4.778  1.00 23.69     0.017 A 
HETATM    6  C17   D T   1      -2.836  13.815  -4.277  1.00 23.69     0.062 A 
HETATM    7  N4    D T   1      -3.659  14.421  -3.309  1.00 23.69    -0.294 N 
HETATM    8  C18   D T   1      -3.324  15.789  -2.841  1.00 23.69     0.134 C 
HETATM    9  C19   D T   1      -4.848  13.774  -2.809  1.00 23.69     0.261 A 
HETATM   10  O1    D T   1      -5.582  14.318  -1.975  1.00 23.69    -0.267 OA
HETATM   11  C20   D T   1      -5.147  12.474  -3.269  1.00 23.69     0.061 A 
HETATM   12  C21   D T   1      -4.346  11.757  -4.221  1.00 23.69     0.006 A 
ENDROOT
BRANCH   1  13
HETATM   13  C5    D T   1      -0.257  11.643  -7.241  1.00 23.69     0.338 C 
HETATM   14  N3    D T   1       0.063  12.533  -8.406  1.00 23.69     0.628 N 
BRANCH  13  15
HETATM   15  C4    D T   1       1.121  11.368  -6.565  1.00 23.69     0.100 A 
HETATM   16  N1    D T   1       2.150  10.730  -7.279  1.00 23.69    -0.308 N 
HETATM   17  C1    D T   1       2.227  10.259  -8.648  1.00 23.69     0.132 C 
HETATM   18  C2    D T   1       3.172  10.658  -6.379  1.00 23.69     0.178 A 
HETATM   19  N2    D T   1       2.911  11.153  -5.199  1.00 23.69    -0.223 NA
HETATM   20  C3    D T   1       1.622  11.593  -5.296  1.00 23.69     0.116 A 
ENDBRANCH  13  15
BRANCH  13  21
HETATM   21  C6    D T   1      -0.943  10.274  -7.708  1.00 23.69     0.003 A 
HETATM   22  C7    D T   1      -0.990   9.090  -6.848  1.00 23.69     0.051 A 
HETATM   23  C8    D T   1      -1.597   7.867  -7.299  1.00 23.69    -0.010 A 
HETATM   24  C9    D T   1      -2.220   7.814  -8.575  1.00 23.69     0.054 A 
HETATM   25 CL1    D T   1      -2.963   6.374  -9.082  1.00 23.69    -0.083 Cl
HETATM   26  C10   D T   1      -2.186   8.960  -9.442  1.00 23.69     0.011 A 
HETATM   27  C11   D T   1      -1.584  10.156  -9.007  1.00 23.69    -0.005 A 
ENDBRANCH  13  21
ENDBRANCH   1  13
BRANCH  12  28
HETATM   28  C22   D T   1      -4.816  10.395  -4.587  1.00 23.69     0.001 A 
HETATM   29  C23   D T   1      -3.964   9.275  -4.435  1.00 23.69     0.011 A 
HETATM   30  C24   D T   1      -4.418   7.944  -4.768  1.00 23.69     0.058 A 
HETATM   31 CL2    D T   1      -3.402   6.608  -4.566  1.00 23.69    -0.082 Cl
HETATM   32  C25   D T   1      -5.747   7.751  -5.314  1.00 23.69     0.011 A 
HETATM   33  C26   D T   1      -6.608   8.903  -5.476  1.00 23.69     0.001 A 
HETATM   34  C27   D T   1      -6.132  10.220  -5.120  1.00 23.69     0.000 A 
ENDBRANCH  12  28
TORSDOF 4
