REMARK  4 active torsions:
REMARK  status: ('A' for Active; 'I' for Inactive)
REMARK    1  A    between atoms: C4_6  and  C5_7 
REMARK    2  A    between atoms: C5_7  and  C6_8 
REMARK    3  A    between atoms: C5_7  and  C12_16 
REMARK    4  A    between atoms: C21_27  and  C22_28 
ROOT
HETATM    1  C12   D T   1       8.490  -6.815   9.615  1.00 23.69     0.021 A 
HETATM    2  C13   D T   1       8.919  -5.711   8.870  1.00 23.69    -0.000 A 
HETATM    3  C14   D T   1       9.386  -4.509   9.410  1.00 23.69     0.016 A 
HETATM    4  C15   D T   1       8.569  -6.713  11.053  1.00 23.69    -0.000 A 
HETATM    5  C16   D T   1       9.007  -5.525  11.716  1.00 23.69     0.017 A 
HETATM    6  C17   D T   1       9.474  -4.416  10.979  1.00 23.69     0.062 A 
HETATM    7  N4    D T   1       9.905  -3.209  11.561  1.00 23.69    -0.294 N 
HETATM    8  C18   D T   1       9.962  -3.110  13.041  1.00 23.69     0.134 C 
HETATM    9  C19   D T   1      10.349  -2.094  10.760  1.00 23.69     0.261 A 
HETATM   10  O1    D T   1      10.747  -1.042  11.274  1.00 23.69    -0.267 OA
HETATM   11  C20   D T   1      10.286  -2.212   9.356  1.00 23.69     0.061 A 
HETATM   12  C21   D T   1       9.821  -3.386   8.670  1.00 23.69     0.006 A 
ENDROOT
BRANCH   1  13
HETATM   13  C5    D T   1       7.984  -8.120   8.924  1.00 23.69     0.338 C 
HETATM   14  N3    D T   1       8.635  -9.339   9.508  1.00 23.69     0.628 N 
BRANCH  13  15
HETATM   15  C4    D T   1       6.471  -8.280   9.265  1.00 23.69     0.100 A 
HETATM   16  N1    D T   1       5.746  -9.383   8.784  1.00 23.69    -0.308 N 
HETATM   17  C1    D T   1       6.146 -10.533   7.995  1.00 23.69     0.132 C 
HETATM   18  C2    D T   1       4.487  -9.179   9.269  1.00 23.69     0.178 A 
HETATM   19  N2    D T   1       4.331  -8.091   9.973  1.00 23.69    -0.223 NA
HETATM   20  C3    D T   1       5.566  -7.508   9.971  1.00 23.69     0.116 A 
ENDBRANCH  13  15
BRANCH  13  21
HETATM   21  C6    D T   1       8.203  -8.028   7.340  1.00 23.69     0.003 A 
HETATM   22  C7    D T   1       7.364  -7.187   6.484  1.00 23.69     0.051 A 
HETATM   23  C8    D T   1       7.571  -7.138   5.062  1.00 23.69    -0.010 A 
HETATM   24  C9    D T   1       8.644  -7.862   4.475  1.00 23.69     0.054 A 
HETATM   25 CL1    D T   1       8.897  -7.768   2.799  1.00 23.69    -0.083 Cl
HETATM   26  C10   D T   1       9.480  -8.698   5.292  1.00 23.69     0.011 A 
HETATM   27  C11   D T   1       9.274  -8.757   6.684  1.00 23.69    -0.005 A 
ENDBRANCH  13  21
ENDBRANCH   1  13
BRANCH  12  28
HETATM   28  C22   D T   1       9.825  -3.327   7.184  1.00 23.69     0.001 A 
HETATM   29  C23   D T   1       8.639  -3.572   6.452  1.00 23.69     0.011 A 
HETATM   30  C24   D T   1       8.626  -3.497   5.008  1.00 23.69     0.058 A 
HETATM   31 CL2    D T   1       7.202  -3.772   4.140  1.00 23.69    -0.082 Cl
HETATM   32  C25   D T   1       9.854  -3.217   4.291  1.00 23.69     0.011 A 
HETATM   33  C26   D T   1      11.064  -2.978   5.047  1.00 23.69     0.001 A 
HETATM   34  C27   D T   1      11.043  -3.044   6.490  1.00 23.69     0.000 A 
ENDBRANCH  12  28
TORSDOF 4
