REMARK  4 active torsions:
REMARK  status: ('A' for Active; 'I' for Inactive)
REMARK    1  A    between atoms: C4_6  and  C5_7 
REMARK    2  A    between atoms: C5_7  and  C6_8 
REMARK    3  A    between atoms: C5_7  and  C12_16 
REMARK    4  A    between atoms: C21_27  and  C22_28 
ROOT
HETATM    1  C12   D T   1      -3.373  -3.385  -0.482  1.00 23.69     0.021 A 
HETATM    2  C13   D T   1      -2.088  -3.066  -0.936  1.00 23.69    -0.000 A 
HETATM    3  C14   D T   1      -1.189  -2.222  -0.277  1.00 23.69     0.016 A 
HETATM    4  C15   D T   1      -3.786  -2.823   0.783  1.00 23.69    -0.000 A 
HETATM    5  C16   D T   1      -2.960  -1.929   1.532  1.00 23.69     0.017 A 
HETATM    6  C17   D T   1      -1.650  -1.624   1.104  1.00 23.69     0.062 A 
HETATM    7  N4    D T   1      -0.788  -0.741   1.780  1.00 23.69    -0.294 N 
HETATM    8  C18   D T   1      -1.231  -0.154   3.069  1.00 23.69     0.134 C 
HETATM    9  C19   D T   1       0.535  -0.443   1.285  1.00 23.69     0.261 A 
HETATM   10  O1    D T   1       1.300   0.317   1.892  1.00 23.69    -0.267 OA
HETATM   11  C20   D T   1       0.935  -1.013   0.059  1.00 23.69     0.061 A 
HETATM   12  C21   D T   1       0.110  -1.890  -0.725  1.00 23.69     0.006 A 
ENDROOT
BRANCH   1  13
HETATM   13  C5    D T   1      -4.310  -4.340  -1.286  1.00 23.69     0.338 C 
HETATM   14  N3    D T   1      -4.904  -5.397  -0.403  1.00 23.69     0.628 N 
BRANCH  13  15
HETATM   15  C4    D T   1      -5.531  -3.503  -1.776  1.00 23.69     0.100 A 
HETATM   16  N1    D T   1      -6.556  -4.109  -2.522  1.00 23.69    -0.308 N 
HETATM   17  C1    D T   1      -6.762  -5.481  -2.944  1.00 23.69     0.132 C 
HETATM   18  C2    D T   1      -7.424  -3.087  -2.770  1.00 23.69     0.178 A 
HETATM   19  N2    D T   1      -7.068  -1.926  -2.291  1.00 23.69    -0.223 NA
HETATM   20  C3    D T   1      -5.876  -2.167  -1.672  1.00 23.69     0.116 A 
ENDBRANCH  13  15
BRANCH  13  21
HETATM   21  C6    D T   1      -3.521  -4.973  -2.527  1.00 23.69     0.003 A 
HETATM   22  C7    D T   1      -3.198  -4.196  -3.725  1.00 23.69     0.051 A 
HETATM   23  C8    D T   1      -2.505  -4.795  -4.833  1.00 23.69    -0.010 A 
HETATM   24  C9    D T   1      -2.065  -6.144  -4.749  1.00 23.69     0.054 A 
HETATM   25 CL1    D T   1      -1.217  -6.828  -6.052  1.00 23.69    -0.083 Cl
HETATM   26  C10   D T   1      -2.371  -6.930  -3.586  1.00 23.69     0.011 A 
HETATM   27  C11   D T   1      -3.059  -6.349  -2.503  1.00 23.69    -0.005 A 
ENDBRANCH  13  21
ENDBRANCH   1  13
BRANCH  12  28
HETATM   28  C22   D T   1       0.700  -2.394  -1.993  1.00 23.69     0.001 A 
HETATM   29  C23   D T   1       0.033  -2.195  -3.225  1.00 23.69     0.011 A 
HETATM   30  C24   D T   1       0.608  -2.663  -4.467  1.00 23.69     0.058 A 
HETATM   31 CL2    D T   1      -0.185  -2.405  -5.937  1.00 23.69    -0.082 Cl
HETATM   32  C25   D T   1       1.861  -3.391  -4.451  1.00 23.69     0.011 A 
HETATM   33  C26   D T   1       2.531  -3.598  -3.186  1.00 23.69     0.001 A 
HETATM   34  C27   D T   1       1.940  -3.106  -1.963  1.00 23.69     0.000 A 
ENDBRANCH  12  28
TORSDOF 4
