REMARK  4 active torsions:
REMARK  status: ('A' for Active; 'I' for Inactive)
REMARK    1  A    between atoms: C4_6  and  C5_7 
REMARK    2  A    between atoms: C5_7  and  C6_8 
REMARK    3  A    between atoms: C5_7  and  C12_16 
REMARK    4  A    between atoms: C21_27  and  C22_28 
ROOT
HETATM    1  C12   D T   1       8.603  -8.169   7.044  1.00 23.69     0.021 A 
HETATM    2  C13   D T   1       9.194  -7.095   6.368  1.00 23.69    -0.000 A 
HETATM    3  C14   D T   1       9.843  -6.019   6.980  1.00 23.69     0.016 A 
HETATM    4  C15   D T   1       8.704  -8.179   8.484  1.00 23.69    -0.000 A 
HETATM    5  C16   D T   1       9.324  -7.121   9.219  1.00 23.69     0.017 A 
HETATM    6  C17   D T   1       9.953  -6.049   8.550  1.00 23.69     0.062 A 
HETATM    7  N4    D T   1      10.567  -4.965   9.206  1.00 23.69    -0.294 N 
HETATM    8  C18   D T   1      10.647  -4.978  10.688  1.00 23.69     0.134 C 
HETATM    9  C19   D T   1      11.174  -3.880   8.475  1.00 23.69     0.261 A 
HETATM   10  O1    D T   1      11.733  -2.939   9.052  1.00 23.69    -0.267 OA
HETATM   11  C20   D T   1      11.087  -3.889   7.067  1.00 23.69     0.061 A 
HETATM   12  C21   D T   1      10.443  -4.928   6.310  1.00 23.69     0.006 A 
ENDROOT
BRANCH   1  13
HETATM   13  C5    D T   1       7.898  -9.330   6.275  1.00 23.69     0.338 C 
HETATM   14  N3    D T   1       8.356 -10.671   6.765  1.00 23.69     0.628 N 
BRANCH  13  15
HETATM   15  C4    D T   1       6.380  -9.278   6.627  1.00 23.69     0.100 A 
HETATM   16  N1    D T   1       5.491 -10.221   6.085  1.00 23.69    -0.308 N 
HETATM   17  C1    D T   1       5.705 -11.361   5.214  1.00 23.69     0.132 C 
HETATM   18  C2    D T   1       4.281  -9.860   6.602  1.00 23.69     0.178 A 
HETATM   19  N2    D T   1       4.299  -8.812   7.379  1.00 23.69    -0.223 NA
HETATM   20  C3    D T   1       5.608  -8.427   7.398  1.00 23.69     0.116 A 
ENDBRANCH  13  15
BRANCH  13  21
HETATM   21  C6    D T   1       8.121  -9.164   4.697  1.00 23.69     0.003 A 
HETATM   22  C7    D T   1       7.418  -8.147   3.912  1.00 23.69     0.051 A 
HETATM   23  C8    D T   1       7.622  -8.032   2.494  1.00 23.69    -0.010 A 
HETATM   24  C9    D T   1       8.567  -8.871   1.844  1.00 23.69     0.054 A 
HETATM   25 CL1    D T   1       8.824  -8.701   0.173  1.00 23.69    -0.083 Cl
HETATM   26  C10   D T   1       9.269  -9.879   2.590  1.00 23.69     0.011 A 
HETATM   27  C11   D T   1       9.063 -10.001   3.977  1.00 23.69    -0.005 A 
ENDBRANCH  13  21
ENDBRANCH   1  13
BRANCH  12  28
HETATM   28  C22   D T   1      10.448  -4.768   4.832  1.00 23.69     0.001 A 
HETATM   29  C23   D T   1       9.235  -4.777   4.104  1.00 23.69     0.011 A 
HETATM   30  C24   D T   1       9.227  -4.602   2.669  1.00 23.69     0.058 A 
HETATM   31 CL2    D T   1       7.773  -4.594   1.807  1.00 23.69    -0.082 Cl
HETATM   32  C25   D T   1      10.479  -4.466   1.953  1.00 23.69     0.011 A 
HETATM   33  C26   D T   1      11.716  -4.467   2.704  1.00 23.69     0.001 A 
HETATM   34  C27   D T   1      11.692  -4.629   4.140  1.00 23.69     0.000 A 
ENDBRANCH  12  28
TORSDOF 4
