REMARK  11 active torsions:
REMARK  status: ('A' for Active; 'I' for Inactive)
REMARK    1  A    between atoms: S2_2  and  C5_5 
REMARK    2  A    between atoms: C5_5  and  C6_6 
REMARK    3  A    between atoms: C6_6  and  N7_7 
REMARK    4  A    between atoms: N7_7  and  C8_8 
REMARK    5  A    between atoms: C8_8  and  C9_9 
REMARK    6  A    between atoms: C12_12  and  C14_14 
REMARK    7  A    between atoms: C21_21  and  N22_22 
REMARK    8  A    between atoms: N22_22  and  C23_23 
REMARK    9  A    between atoms: C26_26  and  O27_27 
REMARK   10  A    between atoms: O27_27  and  C28_28 
REMARK   11  A    between atoms: C28_28  and  C29_29 
ROOT
HETATM    1  C14   D T  91       9.455   3.486  -5.085  1.00 38.14     0.023 A 
HETATM    2  C15   D T  91       9.323   4.813  -5.489  1.00 35.17     0.004 A 
HETATM    3  C16   D T  91       8.429   5.141  -6.479  1.00 34.68     0.019 A 
HETATM    4  C17   D T  91       7.658   4.153  -7.089  1.00 33.31     0.086 A 
HETATM    5  N18   D T  91       6.764   4.500  -8.082  1.00 32.08    -0.224 NA
HETATM    6  C19   D T  91       5.993   3.533  -8.696  1.00 32.80     0.200 A 
HETATM    7  N20   D T  91       6.111   2.211  -8.322  1.00 33.06    -0.205 NA
HETATM    8  C21   D T  91       7.000   1.841  -7.332  1.00 33.11     0.166 A 
HETATM    9  C39   D T  91       7.785   2.827  -6.704  1.00 33.77     0.054 A 
HETATM   10  C40   D T  91       8.680   2.483  -5.706  1.00 34.65     0.006 A 
ENDROOT
BRANCH   8  11
HETATM   11  N22   D T  91       7.118   0.504  -6.953  1.00 33.98    -0.227 NA
BRANCH  11  12
HETATM   12  C23   D T  91       6.490  -0.532  -7.667  1.00 33.25     0.084 A 
HETATM   13  C24   D T  91       5.639  -1.420  -7.006  1.00 31.98     0.021 A 
HETATM   14  C25   D T  91       5.022  -2.444  -7.718  1.00 31.39     0.027 A 
HETATM   15  C26   D T  91       5.259  -2.575  -9.082  1.00 32.78     0.105 A 
HETATM   16  C36   D T  91       6.095  -1.707  -9.720  1.00 33.04     0.082 A 
HETATM   17 CL3    D T  91       6.361  -1.899 -11.380  1.00 34.74    -0.080 Cl
HETATM   18  C38   D T  91       6.713  -0.687  -9.031  1.00 32.28     0.033 A 
BRANCH  15  19
HETATM   19  O27   D T  91       4.640  -3.604  -9.840  1.00 32.72    -0.325 OA
BRANCH  19  20
HETATM   20  C28   D T  91       3.597  -4.288  -9.132  1.00 34.20     0.175 C 
BRANCH  20  21
HETATM   21  C29   D T  91       2.258  -3.528  -9.207  1.00 33.41     0.010 A 
HETATM   22  C30   D T  91       1.149  -4.047  -8.577  1.00 32.49    -0.002 A 
HETATM   23  C31   D T  91      -0.054  -3.373  -8.631  1.00 32.79     0.002 A 
HETATM   24  C32   D T  91      -0.148  -2.178  -9.312  1.00 32.60     0.030 A 
HETATM   25  C33   D T  91       0.956  -1.655  -9.942  1.00 33.26     0.140 A 
HETATM   26  F34   D T  91       0.863  -0.514 -10.585  1.00 33.03    -0.204 F 
HETATM   27  C35   D T  91       2.161  -2.322  -9.896  1.00 33.74     0.028 A 
ENDBRANCH  20  21
ENDBRANCH  19  20
ENDBRANCH  15  19
ENDBRANCH  11  12
ENDBRANCH   8  11
BRANCH   1  28
HETATM   28  C12   D T  91      10.384   3.140  -4.006  1.00 40.70     0.100 A 
HETATM   29  C11   D T  91      11.107   4.076  -3.310  1.00 42.97     0.026 A 
HETATM   30  C10   D T  91      11.798   3.455  -2.412  1.00 44.99     0.024 A 
HETATM   31  C9    D T  91      11.528   2.140  -2.534  1.00 47.90     0.114 A 
HETATM   32  O13   D T  91      10.593   1.824  -3.584  1.00 44.76    -0.309 OA
BRANCH  31  33
HETATM   33  C8    D T  91      12.147   1.084  -1.648  1.00 53.94     0.341 C 
BRANCH  33  34
HETATM   34  N7    D T  91      11.434   1.041  -0.369  1.00 60.98     0.347 N 
BRANCH  34  35
HETATM   35  C6    D T  91      12.249   1.685   0.671  1.00 65.50     0.308 C 
BRANCH  35  36
HETATM   36  C5    D T  91      12.591   0.657   1.756  1.00 70.88     0.161 C 
BRANCH  36  37
HETATM   37  S2    D T  91      11.609   0.995   3.244  1.00 75.43     0.173 S 
HETATM   38  C1    D T  91      10.290   2.107   2.840  1.00 73.29     0.140 C 
HETATM   39  O3    D T  91      11.057  -0.242   3.752  1.00 74.33    -0.226 OA
HETATM   40  O4    D T  91      12.455   1.598   4.250  1.00 74.26    -0.226 OA
ENDBRANCH  36  37
ENDBRANCH  35  36
ENDBRANCH  34  35
ENDBRANCH  33  34
ENDBRANCH  31  33
ENDBRANCH   1  28
TORSDOF 11
