REMARK  11 active torsions:
REMARK  status: ('A' for Active; 'I' for Inactive)
REMARK    1  A    between atoms: S2_2  and  C5_5 
REMARK    2  A    between atoms: C5_5  and  C6_6 
REMARK    3  A    between atoms: C6_6  and  N7_7 
REMARK    4  A    between atoms: N7_7  and  C8_8 
REMARK    5  A    between atoms: C8_8  and  C9_9 
REMARK    6  A    between atoms: C12_12  and  C14_14 
REMARK    7  A    between atoms: C21_21  and  N22_22 
REMARK    8  A    between atoms: N22_22  and  C23_23 
REMARK    9  A    between atoms: C26_26  and  O27_27 
REMARK   10  A    between atoms: O27_27  and  C28_28 
REMARK   11  A    between atoms: C28_28  and  C29_29 
ROOT
HETATM    1  C14   D T  91       6.980  11.188   2.578  1.00 38.14     0.023 A 
HETATM    2  C15   D T  91       7.210  10.161   3.491  1.00 35.17     0.004 A 
HETATM    3  C16   D T  91       6.152   9.450   4.001  1.00 34.68     0.019 A 
HETATM    4  C17   D T  91       4.847   9.753   3.617  1.00 33.31     0.086 A 
HETATM    5  N18   D T  91       3.795   9.027   4.140  1.00 32.08    -0.224 NA
HETATM    6  C19   D T  91       2.497   9.316   3.769  1.00 32.80     0.200 A 
HETATM    7  N20   D T  91       2.239  10.334   2.875  1.00 33.06    -0.205 NA
HETATM    8  C21   D T  91       3.276  11.074   2.341  1.00 33.11     0.166 A 
HETATM    9  C39   D T  91       4.601  10.779   2.717  1.00 33.77     0.054 A 
HETATM   10  C40   D T  91       5.658  11.502   2.193  1.00 34.65     0.006 A 
ENDROOT
BRANCH   8  11
HETATM   11  N22   D T  91       3.017  12.102   1.436  1.00 33.98    -0.227 NA
BRANCH  11  12
HETATM   12  C23   D T  91       1.711  12.548   1.167  1.00 33.25     0.084 A 
HETATM   13  C24   D T  91       1.236  12.571  -0.146  1.00 31.98     0.021 A 
HETATM   14  C25   D T  91      -0.057  13.016  -0.404  1.00 31.39     0.027 A 
HETATM   15  C26   D T  91      -0.866  13.433   0.647  1.00 32.78     0.105 A 
HETATM   16  C36   D T  91      -0.394  13.411   1.927  1.00 33.04     0.082 A 
HETATM   17 CL3    D T  91      -1.407  13.928   3.180  1.00 34.74    -0.080 Cl
HETATM   18  C38   D T  91       0.883  12.974   2.201  1.00 32.28     0.033 A 
BRANCH  15  19
HETATM   19  O27   D T  91      -2.193  13.884   0.420  1.00 32.72    -0.325 OA
BRANCH  19  20
HETATM   20  C28   D T  91      -2.666  13.625  -0.909  1.00 34.20     0.175 C 
BRANCH  20  21
HETATM   21  C29   D T  91      -3.207  12.190  -1.056  1.00 33.41     0.010 A 
HETATM   22  C30   D T  91      -3.700  11.773  -2.273  1.00 32.49    -0.002 A 
HETATM   23  C31   D T  91      -4.183  10.488  -2.419  1.00 32.79     0.002 A 
HETATM   24  C32   D T  91      -4.169   9.618  -1.349  1.00 32.60     0.030 A 
HETATM   25  C33   D T  91      -3.676  10.028  -0.133  1.00 33.26     0.140 A 
HETATM   26  F34   D T  91      -3.661   9.194   0.882  1.00 33.03    -0.204 F 
HETATM   27  C35   D T  91      -3.196  11.310   0.024  1.00 33.74     0.028 A 
ENDBRANCH  20  21
ENDBRANCH  19  20
ENDBRANCH  15  19
ENDBRANCH  11  12
ENDBRANCH   8  11
BRANCH   1  28
HETATM   28  C12   D T  91       8.110  11.926   2.007  1.00 40.70     0.100 A 
HETATM   29  C11   D T  91       9.420  11.619   2.280  1.00 42.97     0.026 A 
HETATM   30  C10   D T  91      10.165  12.426   1.601  1.00 44.99     0.024 A 
HETATM   31  C9    D T  91       9.347  13.244   0.908  1.00 47.90     0.114 A 
HETATM   32  O13   D T  91       7.944  12.993   1.121  1.00 44.76    -0.309 OA
BRANCH  31  33
HETATM   33  C8    D T  91       9.851  14.330  -0.012  1.00 53.94     0.341 C 
BRANCH  33  34
HETATM   34  N7    D T  91      10.236  13.741  -1.297  1.00 60.98     0.347 N 
BRANCH  34  35
HETATM   35  C6    D T  91      11.701  13.671  -1.388  1.00 65.50     0.308 C 
BRANCH  35  36
HETATM   36  C5    D T  91      12.178  14.531  -2.564  1.00 70.88     0.161 C 
BRANCH  36  37
HETATM   37  S2    D T  91      12.701  13.456  -3.929  1.00 75.43     0.173 S 
HETATM   38  C1    D T  91      12.107  11.811  -3.646  1.00 73.29     0.140 C 
HETATM   39  O3    D T  91      12.157  13.954  -5.174  1.00 74.33    -0.226 OA
HETATM   40  O4    D T  91      14.144  13.440  -4.003  1.00 74.26    -0.226 OA
ENDBRANCH  36  37
ENDBRANCH  35  36
ENDBRANCH  34  35
ENDBRANCH  33  34
ENDBRANCH  31  33
ENDBRANCH   1  28
TORSDOF 11
