REMARK  6 active torsions:
REMARK  status: ('A' for Active; 'I' for Inactive)
REMARK    1  A    between atoms: NBC_2  and  CBB_4 
REMARK    2  A    between atoms: CBB_4  and  CBA_5 
REMARK    3  A    between atoms: CBA_5  and  CAY_6 
REMARK    4  A    between atoms: CAY_6  and  NAH_7 
REMARK    5  A    between atoms: CAG_15  and  CAI_16 
REMARK    6  A    between atoms: CAJ_22  and  CAK_23 
ROOT
HETATM    1  CAI   D T1001      -1.660  -4.081 -12.143  1.00 35.40     0.064 A 
HETATM    2  CAT   D T1001      -0.802  -5.284 -11.958  1.00 36.13     0.282 A 
HETATM    3  OAZ   D T1001       0.350  -5.261 -11.393  1.00 33.53    -0.265 OA
HETATM    4  NAU   D T1001      -1.293  -6.407 -12.526  1.00 33.87    -0.169 NA
HETATM    5  CAV   D T1001      -2.491  -6.064 -13.018  1.00 34.90     0.282 A 
HETATM    6  OAX   D T1001      -3.227  -6.920 -13.611  1.00 35.00    -0.265 OA
HETATM    7  CAJ   D T1001      -2.842  -4.638 -12.826  1.00 32.88     0.064 A 
ENDROOT
BRANCH   1   8
HETATM    8  CAG   D T1001      -1.410  -2.732 -11.523  1.00 35.34     0.023 A 
HETATM    9  CAW   D T1001      -2.443  -2.021 -10.958  1.00 34.78     0.076 A 
HETATM   10  NAH   D T1001      -1.856  -0.906 -10.425  1.00 36.88    -0.326 N 
HETATM   11  CAE   D T1001      -0.528  -0.924 -10.602  1.00 36.88     0.060 A 
HETATM   12  CAF   D T1001       0.500  -0.056 -10.226  1.00 37.02     0.017 A 
HETATM   13  CAD   D T1001      -0.198  -2.107 -11.270  1.00 36.79     0.017 A 
HETATM   14  CAA   D T1001       1.811  -0.344 -10.552  1.00 37.13     0.002 A 
HETATM   15  CAB   D T1001       2.134  -1.521 -11.249  1.00 38.67     0.000 A 
HETATM   16  CAC   D T1001       1.120  -2.404 -11.632  1.00 38.70     0.002 A 
BRANCH  10  17
HETATM   17  CAY   D T1001      -2.595   0.127  -9.726  1.00 39.32     0.108 C 
BRANCH  17  18
HETATM   18  CBA   D T1001      -3.799   0.582 -10.516  1.00 40.15     0.048 C 
BRANCH  18  19
HETATM   19  CBB   D T1001      -4.435   1.631  -9.618  1.00 46.58     0.099 C 
BRANCH  19  20
HETATM   20  NBC   D T1001      -5.857   1.775  -9.925  1.00 44.62    -0.365 N 
HETATM   21  CBD   D T1001      -6.594   2.703  -9.075  1.00 48.91     0.121 C 
HETATM   22  CBE   D T1001      -6.528   1.102 -11.026  1.00 49.55     0.121 C 
ENDBRANCH  19  20
ENDBRANCH  18  19
ENDBRANCH  17  18
ENDBRANCH  10  17
ENDBRANCH   1   8
BRANCH   7  23
HETATM   23  CAK   D T1001      -4.130  -4.003 -13.254  1.00 34.11     0.025 A 
HETATM   24  CAM   D T1001      -4.353  -2.652 -13.588  1.00 33.58     0.019 A 
HETATM   25  CAP   D T1001      -3.522  -1.527 -13.661  1.00 31.36     0.002 A 
HETATM   26  CAN   D T1001      -5.719  -2.608 -13.874  1.00 34.83     0.081 A 
HETATM   27  CAQ   D T1001      -4.079  -0.309 -14.033  1.00 33.71     0.000 A 
HETATM   28  CAR   D T1001      -5.441  -0.249 -14.329  1.00 32.72     0.002 A 
HETATM   29  CAS   D T1001      -6.278  -1.377 -14.266  1.00 35.56     0.019 A 
HETATM   30  NAO   D T1001      -6.249  -3.866 -13.729  1.00 33.95    -0.244 NA
HETATM   31  CAL   D T1001      -5.296  -4.761 -13.351  1.00 33.68     0.099 A 
ENDBRANCH   7  23
TORSDOF 6
