REMARK  6 active torsions:
REMARK  status: ('A' for Active; 'I' for Inactive)
REMARK    1  A    between atoms: NBC_2  and  CBB_4 
REMARK    2  A    between atoms: CBB_4  and  CBA_5 
REMARK    3  A    between atoms: CBA_5  and  CAY_6 
REMARK    4  A    between atoms: CAY_6  and  NAH_7 
REMARK    5  A    between atoms: CAG_15  and  CAI_16 
REMARK    6  A    between atoms: CAJ_22  and  CAK_23 
ROOT
HETATM    1  CAI   D T1001       0.338   4.951   7.617  1.00 35.40     0.064 A 
HETATM    2  CAT   D T1001      -0.895   4.116   7.613  1.00 36.13     0.282 A 
HETATM    3  OAZ   D T1001      -1.897   4.321   6.838  1.00 33.53    -0.265 OA
HETATM    4  NAU   D T1001      -0.922   3.164   8.571  1.00 33.87    -0.169 NA
HETATM    5  CAV   D T1001       0.269   3.239   9.182  1.00 34.90     0.282 A 
HETATM    6  OAX   D T1001       0.567   2.449  10.138  1.00 35.00    -0.265 OA
HETATM    7  CAJ   D T1001       1.152   4.307   8.663  1.00 32.88     0.064 A 
ENDROOT
BRANCH   1   8
HETATM    8  CAG   D T1001       0.677   6.003   6.594  1.00 35.34     0.023 A 
HETATM    9  CAW   D T1001       1.948   6.089   6.076  1.00 34.78     0.076 A 
HETATM   10  NAH   D T1001       1.880   7.077   5.133  1.00 36.88    -0.326 N 
HETATM   11  CAE   D T1001       0.636   7.563   5.026  1.00 36.88     0.060 A 
HETATM   12  CAF   D T1001       0.054   8.535   4.208  1.00 37.02     0.017 A 
HETATM   13  CAD   D T1001      -0.177   6.865   5.924  1.00 36.79     0.017 A 
HETATM   14  CAA   D T1001      -1.290   8.829   4.322  1.00 37.13     0.002 A 
HETATM   15  CAB   D T1001      -2.098   8.145   5.247  1.00 38.67     0.000 A 
HETATM   16  CAC   D T1001      -1.535   7.166   6.072  1.00 38.70     0.002 A 
BRANCH  10  17
HETATM   17  CAY   D T1001       3.016   7.497   4.335  1.00 39.32     0.108 C 
BRANCH  17  18
HETATM   18  CBA   D T1001       4.229   7.771   5.193  1.00 40.15     0.048 C 
BRANCH  18  19
HETATM   19  CBB   D T1001       5.293   8.171   4.183  1.00 46.58     0.099 C 
BRANCH  19  20
HETATM   20  NBC   D T1001       6.629   7.932   4.725  1.00 44.62    -0.365 N 
HETATM   21  CBD   D T1001       7.736   8.208   3.816  1.00 48.91     0.121 C 
HETATM   22  CBE   D T1001       6.893   7.501   6.089  1.00 49.55     0.121 C 
ENDBRANCH  19  20
ENDBRANCH  18  19
ENDBRANCH  17  18
ENDBRANCH  10  17
ENDBRANCH   1   8
BRANCH   7  23
HETATM   23  CAK   D T1001       2.543   4.586   9.148  1.00 34.11     0.025 A 
HETATM   24  CAM   D T1001       3.235   5.813   9.115  1.00 33.58     0.019 A 
HETATM   25  CAP   D T1001       2.893   7.101   8.684  1.00 31.36     0.002 A 
HETATM   26  CAN   D T1001       4.483   5.499   9.654  1.00 34.83     0.081 A 
HETATM   27  CAQ   D T1001       3.838   8.115   8.794  1.00 33.71     0.000 A 
HETATM   28  CAR   D T1001       5.089   7.819   9.338  1.00 32.72     0.002 A 
HETATM   29  CAS   D T1001       5.433   6.530   9.781  1.00 35.56     0.019 A 
HETATM   30  NAO   D T1001       4.503   4.169   9.995  1.00 33.95    -0.244 NA
HETATM   31  CAL   D T1001       3.318   3.568   9.702  1.00 33.68     0.099 A 
ENDBRANCH   7  23
TORSDOF 6
