REMARK  6 active torsions:
REMARK  status: ('A' for Active; 'I' for Inactive)
REMARK    1  A    between atoms: NBC_2  and  CBB_4 
REMARK    2  A    between atoms: CBB_4  and  CBA_5 
REMARK    3  A    between atoms: CBA_5  and  CAY_6 
REMARK    4  A    between atoms: CAY_6  and  NAH_7 
REMARK    5  A    between atoms: CAG_15  and  CAI_16 
REMARK    6  A    between atoms: CAJ_22  and  CAK_23 
ROOT
HETATM    1  CAI   D T1001      -2.982  -4.644  -5.810  1.00 35.40     0.064 A 
HETATM    2  CAT   D T1001      -1.575  -4.488  -5.351  1.00 36.13     0.282 A 
HETATM    3  OAZ   D T1001      -1.060  -3.370  -4.986  1.00 33.53    -0.265 OA
HETATM    4  NAU   D T1001      -0.835  -5.615  -5.439  1.00 33.87    -0.169 NA
HETATM    5  CAV   D T1001      -1.684  -6.567  -5.852  1.00 34.90     0.282 A 
HETATM    6  OAX   D T1001      -1.290  -7.768  -6.020  1.00 35.00    -0.265 OA
HETATM    7  CAJ   D T1001      -3.061  -6.086  -6.103  1.00 32.88     0.064 A 
ENDROOT
BRANCH   1   8
HETATM    8  CAG   D T1001      -4.049  -3.585  -5.717  1.00 35.34     0.023 A 
HETATM    9  CAW   D T1001      -5.316  -3.906  -5.290  1.00 34.78     0.076 A 
HETATM   10  NAH   D T1001      -5.987  -2.715  -5.244  1.00 36.88    -0.326 N 
HETATM   11  CAE   D T1001      -5.189  -1.694  -5.581  1.00 36.88     0.060 A 
HETATM   12  CAF   D T1001      -5.382  -0.312  -5.659  1.00 37.02     0.017 A 
HETATM   13  CAD   D T1001      -3.919  -2.211  -5.853  1.00 36.79     0.017 A 
HETATM   14  CAA   D T1001      -4.346   0.517  -6.042  1.00 37.13     0.002 A 
HETATM   15  CAB   D T1001      -3.079  -0.012  -6.342  1.00 38.67     0.000 A 
HETATM   16  CAC   D T1001      -2.864  -1.391  -6.268  1.00 38.70     0.002 A 
BRANCH  10  17
HETATM   17  CAY   D T1001      -7.375  -2.597  -4.839  1.00 39.32     0.108 C 
BRANCH  17  18
HETATM   18  CBA   D T1001      -8.254  -3.586  -5.566  1.00 40.15     0.048 C 
BRANCH  18  19
HETATM   19  CBB   D T1001      -9.637  -3.317  -4.995  1.00 46.58     0.099 C 
BRANCH  19  20
HETATM   20  NBC   D T1001     -10.489  -4.495  -5.138  1.00 44.62    -0.365 N 
HETATM   21  CBD   D T1001     -11.822  -4.383  -4.557  1.00 48.91     0.121 C 
HETATM   22  CBE   D T1001     -10.102  -5.703  -5.850  1.00 49.55     0.121 C 
ENDBRANCH  19  20
ENDBRANCH  18  19
ENDBRANCH  17  18
ENDBRANCH  10  17
ENDBRANCH   1   8
BRANCH   7  23
HETATM   23  CAK   D T1001      -4.206  -6.948  -6.542  1.00 34.11     0.025 A 
HETATM   24  CAM   D T1001      -5.344  -6.556  -7.275  1.00 33.58     0.019 A 
HETATM   25  CAP   D T1001      -5.762  -5.340  -7.831  1.00 31.36     0.002 A 
HETATM   26  CAN   D T1001      -6.090  -7.732  -7.373  1.00 34.83     0.081 A 
HETATM   27  CAQ   D T1001      -6.974  -5.298  -8.511  1.00 33.71     0.000 A 
HETATM   28  CAR   D T1001      -7.728  -6.466  -8.625  1.00 32.72     0.002 A 
HETATM   29  CAS   D T1001      -7.309  -7.691  -8.076  1.00 35.56     0.019 A 
HETATM   30  NAO   D T1001      -5.411  -8.748  -6.746  1.00 33.95    -0.244 NA
HETATM   31  CAL   D T1001      -4.236  -8.304  -6.222  1.00 33.68     0.099 A 
ENDBRANCH   7  23
TORSDOF 6
