REMARK  6 active torsions:
REMARK  status: ('A' for Active; 'I' for Inactive)
REMARK    1  A    between atoms: NBC_2  and  CBB_4 
REMARK    2  A    between atoms: CBB_4  and  CBA_5 
REMARK    3  A    between atoms: CBA_5  and  CAY_6 
REMARK    4  A    between atoms: CAY_6  and  NAH_7 
REMARK    5  A    between atoms: CAG_15  and  CAI_16 
REMARK    6  A    between atoms: CAJ_22  and  CAK_23 
ROOT
HETATM    1  CAI   D T1001       3.302  11.890   1.970  1.00 35.40     0.064 A 
HETATM    2  CAT   D T1001       2.112  11.099   2.385  1.00 36.13     0.282 A 
HETATM    3  OAZ   D T1001       0.950  11.220   1.854  1.00 33.53    -0.265 OA
HETATM    4  NAU   D T1001       2.325  10.294   3.449  1.00 33.87    -0.169 NA
HETATM    5  CAV   D T1001       3.628  10.421   3.737  1.00 34.90     0.282 A 
HETATM    6  OAX   D T1001       4.154   9.767   4.697  1.00 35.00    -0.265 OA
HETATM    7  CAJ   D T1001       4.351  11.379   2.870  1.00 32.88     0.064 A 
ENDROOT
BRANCH   1   8
HETATM    8  CAG   D T1001       3.376  12.777   0.754  1.00 35.34     0.023 A 
HETATM    9  CAW   D T1001       4.482  12.752  -0.062  1.00 34.78     0.076 A 
HETATM   10  NAH   D T1001       4.180  13.596  -1.094  1.00 36.88    -0.326 N 
HETATM   11  CAE   D T1001       2.944  14.097  -0.967  1.00 36.88     0.060 A 
HETATM   12  CAF   D T1001       2.174  14.959  -1.753  1.00 37.02     0.017 A 
HETATM   13  CAD   D T1001       2.378  13.558   0.192  1.00 36.79     0.017 A 
HETATM   14  CAA   D T1001       0.896  15.305  -1.362  1.00 37.13     0.002 A 
HETATM   15  CAB   D T1001       0.342  14.783  -0.180  1.00 38.67     0.000 A 
HETATM   16  CAC   D T1001       1.095  13.916   0.618  1.00 38.70     0.002 A 
BRANCH  10  17
HETATM   17  CAY   D T1001       5.085  13.866  -2.195  1.00 39.32     0.108 C 
BRANCH  17  18
HETATM   18  CBA   D T1001       6.468  14.225  -1.704  1.00 40.15     0.048 C 
BRANCH  18  19
HETATM   19  CBB   D T1001       7.252  14.446  -2.988  1.00 46.58     0.099 C 
BRANCH  19  20
HETATM   20  NBC   D T1001       8.682  14.249  -2.756  1.00 44.62    -0.365 N 
HETATM   21  CBD   D T1001       9.533  14.361  -3.935  1.00 48.91     0.121 C 
HETATM   22  CBE   D T1001       9.272  14.009  -1.448  1.00 49.55     0.121 C 
ENDBRANCH  19  20
ENDBRANCH  18  19
ENDBRANCH  17  18
ENDBRANCH  10  17
ENDBRANCH   1   8
BRANCH   7  23
HETATM   23  CAK   D T1001       5.816  11.685   2.960  1.00 34.11     0.025 A 
HETATM   24  CAM   D T1001       6.470  12.874   2.583  1.00 33.58     0.019 A 
HETATM   25  CAP   D T1001       6.025  14.097   2.065  1.00 31.36     0.002 A 
HETATM   26  CAN   D T1001       7.814  12.604   2.845  1.00 34.83     0.081 A 
HETATM   27  CAQ   D T1001       6.962  15.089   1.796  1.00 33.71     0.000 A 
HETATM   28  CAR   D T1001       8.309  14.838   2.059  1.00 32.72     0.002 A 
HETATM   29  CAS   D T1001       8.760  13.615   2.588  1.00 35.56     0.019 A 
HETATM   30  NAO   D T1001       7.926  11.336   3.360  1.00 33.95    -0.244 NA
HETATM   31  CAL   D T1001       6.709  10.734   3.452  1.00 33.68     0.099 A 
ENDBRANCH   7  23
TORSDOF 6
