REMARK  6 active torsions:
REMARK  status: ('A' for Active; 'I' for Inactive)
REMARK    1  A    between atoms: NBC_2  and  CBB_4 
REMARK    2  A    between atoms: CBB_4  and  CBA_5 
REMARK    3  A    between atoms: CBA_5  and  CAY_6 
REMARK    4  A    between atoms: CAY_6  and  NAH_7 
REMARK    5  A    between atoms: CAG_15  and  CAI_16 
REMARK    6  A    between atoms: CAJ_22  and  CAK_23 
ROOT
HETATM    1  CAI   D T1000       2.909  11.183   1.690  1.00 59.57     0.064 A 
HETATM    2  CAT   D T1000       1.643  10.521   2.095  1.00 60.04     0.282 A 
HETATM    3  OAZ   D T1000       0.564  10.567   1.411  1.00 63.91    -0.265 OA
HETATM    4  NAU   D T1000       1.701   9.846   3.257  1.00 59.30    -0.169 NA
HETATM    5  CAV   D T1000       2.938   9.992   3.699  1.00 59.13     0.282 A 
HETATM    6  OAX   D T1000       3.285   9.445   4.792  1.00 59.19    -0.265 OA
HETATM    7  CAJ   D T1000       3.820  10.817   2.813  1.00 59.47     0.064 A 
ENDROOT
BRANCH   1   8
HETATM    8  CAG   D T1000       3.117  12.007   0.411  1.00 60.05     0.023 A 
HETATM    9  CAW   D T1000       4.272  11.842  -0.343  1.00 61.31     0.076 A 
HETATM   10  NAH   D T1000       4.164  12.704  -1.404  1.00 62.19    -0.326 N 
HETATM   11  CAE   D T1000       2.998  13.390  -1.352  1.00 60.17     0.060 A 
HETATM   12  CAF   D T1000       2.402  14.383  -2.194  1.00 59.69     0.017 A 
HETATM   13  CAD   D T1000       2.293  12.967  -0.184  1.00 59.51     0.017 A 
HETATM   14  CAA   D T1000       1.144  14.933  -1.877  1.00 60.21     0.002 A 
HETATM   15  CAB   D T1000       0.442  14.508  -0.705  1.00 60.52     0.000 A 
HETATM   16  CAC   D T1000       1.014  13.519   0.153  1.00 59.56     0.002 A 
BRANCH  10  17
HETATM   17  CAY   D T1000       5.198  12.846  -2.440  1.00 63.29     0.108 C 
BRANCH  17  18
HETATM   18  CBA   D T1000       6.386  13.606  -1.866  1.00 66.90     0.048 C 
BRANCH  18  19
HETATM   19  CBB   D T1000       7.405  13.758  -2.994  1.00 68.12     0.099 C 
BRANCH  19  20
HETATM   20  NBC   D T1000       8.781  13.354  -2.612  1.00 69.41    -0.365 N 
HETATM   21  CBD   D T1000       9.769  13.514  -3.665  1.00 71.44     0.121 C 
HETATM   22  CBE   D T1000       9.207  12.833  -1.312  1.00 69.10     0.121 C 
ENDBRANCH  19  20
ENDBRANCH  18  19
ENDBRANCH  17  18
ENDBRANCH  10  17
ENDBRANCH   1   8
BRANCH   7  23
HETATM   23  CAK   D T1000       5.288  11.137   3.071  1.00 59.62     0.025 A 
HETATM   24  CAM   D T1000       6.034  12.323   2.763  1.00 60.49     0.019 A 
HETATM   25  CAP   D T1000       5.731  13.589   2.152  1.00 60.58     0.002 A 
HETATM   26  CAN   D T1000       7.337  12.011   3.223  1.00 61.04     0.081 A 
HETATM   27  CAQ   D T1000       6.752  14.556   1.996  1.00 59.56     0.000 A 
HETATM   28  CAR   D T1000       8.057  14.249   2.451  1.00 60.35     0.002 A 
HETATM   29  CAS   D T1000       8.378  12.996   3.066  1.00 60.55     0.019 A 
HETATM   30  NAO   D T1000       7.327  10.743   3.757  1.00 60.44    -0.244 NA
HETATM   31  CAL   D T1000       6.102  10.176   3.683  1.00 59.16     0.099 A 
ENDBRANCH   7  23
TORSDOF 6
