REMARK  6 active torsions:
REMARK  status: ('A' for Active; 'I' for Inactive)
REMARK    1  A    between atoms: NBC_2  and  CBB_4 
REMARK    2  A    between atoms: CBB_4  and  CBA_5 
REMARK    3  A    between atoms: CBA_5  and  CAY_6 
REMARK    4  A    between atoms: CAY_6  and  NAH_7 
REMARK    5  A    between atoms: CAG_15  and  CAI_16 
REMARK    6  A    between atoms: CAJ_22  and  CAK_23 
ROOT
HETATM    1  CAI   D T1000       5.036   1.419  -8.176  1.00 59.57     0.064 A 
HETATM    2  CAT   D T1000       4.287   0.322  -8.840  1.00 60.04     0.282 A 
HETATM    3  OAZ   D T1000       4.200  -0.865  -8.374  1.00 63.91    -0.265 OA
HETATM    4  NAU   D T1000       3.684   0.662  -9.993  1.00 59.30    -0.169 NA
HETATM    5  CAV   D T1000       3.965   1.939 -10.184  1.00 59.13     0.282 A 
HETATM    6  OAX   D T1000       3.511   2.536 -11.210  1.00 59.19    -0.265 OA
HETATM    7  CAJ   D T1000       4.814   2.555  -9.116  1.00 59.47     0.064 A 
ENDROOT
BRANCH   1   8
HETATM    8  CAG   D T1000       5.804   1.302  -6.851  1.00 60.05     0.023 A 
HETATM    9  CAW   D T1000       5.702   2.306  -5.896  1.00 61.31     0.076 A 
HETATM   10  NAH   D T1000       6.491   1.918  -4.845  1.00 62.19    -0.326 N 
HETATM   11  CAE   D T1000       7.072   0.720  -5.093  1.00 60.17     0.060 A 
HETATM   12  CAF   D T1000       7.961  -0.117  -4.346  1.00 59.69     0.017 A 
HETATM   13  CAD   D T1000       6.653   0.291  -6.390  1.00 59.51     0.017 A 
HETATM   14  CAA   D T1000       8.413  -1.341  -4.877  1.00 60.21     0.002 A 
HETATM   15  CAB   D T1000       7.992  -1.767  -6.176  1.00 60.52     0.000 A 
HETATM   16  CAC   D T1000       7.106  -0.950  -6.945  1.00 59.56     0.002 A 
BRANCH  10  17
HETATM   17  CAY   D T1000       6.667   2.720  -3.626  1.00 63.29     0.108 C 
BRANCH  17  18
HETATM   18  CBA   D T1000       7.561   3.915  -3.932  1.00 66.90     0.048 C 
BRANCH  18  19
HETATM   19  CBB   D T1000       7.741   4.685  -2.626  1.00 68.12     0.099 C 
BRANCH  19  20
HETATM   20  NBC   D T1000       7.483   6.141  -2.752  1.00 69.41    -0.365 N 
HETATM   21  CBD   D T1000       7.672   6.894  -1.524  1.00 71.44     0.121 C 
HETATM   22  CBE   D T1000       7.074   6.851  -3.964  1.00 69.10     0.121 C 
ENDBRANCH  19  20
ENDBRANCH  18  19
ENDBRANCH  17  18
ENDBRANCH  10  17
ENDBRANCH   1   8
BRANCH   7  23
HETATM   23  CAK   D T1000       5.278   4.007  -9.076  1.00 59.62     0.025 A 
HETATM   24  CAM   D T1000       6.507   4.563  -8.588  1.00 60.49     0.019 A 
HETATM   25  CAP   D T1000       7.705   4.028  -8.000  1.00 60.58     0.002 A 
HETATM   26  CAN   D T1000       6.338   5.952  -8.801  1.00 61.04     0.081 A 
HETATM   27  CAQ   D T1000       8.750   4.902  -7.616  1.00 59.56     0.000 A 
HETATM   28  CAR   D T1000       8.586   6.293  -7.824  1.00 60.35     0.002 A 
HETATM   29  CAS   D T1000       7.402   6.844  -8.411  1.00 60.55     0.019 A 
HETATM   30  NAO   D T1000       5.106   6.167  -9.373  1.00 60.44    -0.244 NA
HETATM   31  CAL   D T1000       4.428   5.011  -9.556  1.00 59.16     0.099 A 
ENDBRANCH   7  23
TORSDOF 6
