REMARK  6 active torsions:
REMARK  status: ('A' for Active; 'I' for Inactive)
REMARK    1  A    between atoms: NBC_2  and  CBB_4 
REMARK    2  A    between atoms: CBB_4  and  CBA_5 
REMARK    3  A    between atoms: CBA_5  and  CAY_6 
REMARK    4  A    between atoms: CAY_6  and  NAH_7 
REMARK    5  A    between atoms: CAG_15  and  CAI_16 
REMARK    6  A    between atoms: CAJ_22  and  CAK_23 
ROOT
HETATM    1  CAI   D T1000      -2.514  -4.958  -5.308  1.00 59.57     0.064 A 
HETATM    2  CAT   D T1000      -1.107  -4.649  -4.948  1.00 60.04     0.282 A 
HETATM    3  OAZ   D T1000      -0.725  -3.529  -4.464  1.00 63.91    -0.265 OA
HETATM    4  NAU   D T1000      -0.233  -5.646  -5.164  1.00 59.30    -0.169 NA
HETATM    5  CAV   D T1000      -0.941  -6.647  -5.658  1.00 59.13     0.282 A 
HETATM    6  OAX   D T1000      -0.365  -7.740  -5.954  1.00 59.19    -0.265 OA
HETATM    7  CAJ   D T1000      -2.402  -6.358  -5.808  1.00 59.47     0.064 A 
ENDROOT
BRANCH   1   8
HETATM    8  CAG   D T1000      -3.707  -4.002  -5.154  1.00 60.05     0.023 A 
HETATM    9  CAW   D T1000      -4.912  -4.469  -4.647  1.00 61.31     0.076 A 
HETATM   10  NAH   D T1000      -5.765  -3.396  -4.633  1.00 62.19    -0.326 N 
HETATM   11  CAE   D T1000      -5.149  -2.284  -5.100  1.00 60.17     0.060 A 
HETATM   12  CAF   D T1000      -5.572  -0.929  -5.286  1.00 59.69     0.017 A 
HETATM   13  CAD   D T1000      -3.811  -2.639  -5.452  1.00 59.51     0.017 A 
HETATM   14  CAA   D T1000      -4.687   0.035  -5.806  1.00 60.21     0.002 A 
HETATM   15  CAB   D T1000      -3.349  -0.325  -6.160  1.00 60.52     0.000 A 
HETATM   16  CAC   D T1000      -2.900  -1.671  -5.985  1.00 59.56     0.002 A 
BRANCH  10  17
HETATM   17  CAY   D T1000      -7.159  -3.476  -4.175  1.00 63.29     0.108 C 
BRANCH  17  18
HETATM   18  CBA   D T1000      -7.994  -4.202  -5.221  1.00 66.90     0.048 C 
BRANCH  18  19
HETATM   19  CBB   D T1000      -9.434  -4.218  -4.712  1.00 68.12     0.099 C 
BRANCH  19  20
HETATM   20  NBC   D T1000     -10.066  -5.561  -4.754  1.00 69.41    -0.365 N 
HETATM   21  CBD   D T1000     -11.444  -5.591  -4.295  1.00 71.44     0.121 C 
HETATM   22  CBE   D T1000      -9.441  -6.804  -5.207  1.00 69.10     0.121 C 
ENDBRANCH  19  20
ENDBRANCH  18  19
ENDBRANCH  17  18
ENDBRANCH  10  17
ENDBRANCH   1   8
BRANCH   7  23
HETATM   23  CAK   D T1000      -3.451  -7.330  -6.340  1.00 59.62     0.025 A 
HETATM   24  CAM   D T1000      -4.625  -7.073  -7.122  1.00 60.49     0.019 A 
HETATM   25  CAP   D T1000      -5.236  -5.900  -7.688  1.00 60.58     0.002 A 
HETATM   26  CAN   D T1000      -5.195  -8.359  -7.278  1.00 61.04     0.081 A 
HETATM   27  CAQ   D T1000      -6.441  -6.021  -8.421  1.00 59.56     0.000 A 
HETATM   28  CAR   D T1000      -7.018  -7.305  -8.578  1.00 60.35     0.002 A 
HETATM   29  CAS   D T1000      -6.422  -8.484  -8.025  1.00 60.55     0.019 A 
HETATM   30  NAO   D T1000      -4.399  -9.279  -6.636  1.00 60.44    -0.244 NA
HETATM   31  CAL   D T1000      -3.328  -8.694  -6.050  1.00 59.16     0.099 A 
ENDBRANCH   7  23
TORSDOF 6
