REMARK  6 active torsions:
REMARK  status: ('A' for Active; 'I' for Inactive)
REMARK    1  A    between atoms: NBC_2  and  CBB_4 
REMARK    2  A    between atoms: CBB_4  and  CBA_5 
REMARK    3  A    between atoms: CBA_5  and  CAY_6 
REMARK    4  A    between atoms: CAY_6  and  NAH_7 
REMARK    5  A    between atoms: CAG_15  and  CAI_16 
REMARK    6  A    between atoms: CAJ_22  and  CAK_23 
ROOT
HETATM    1  CAI   D T1000       0.137   4.457   7.451  1.00 59.57     0.064 A 
HETATM    2  CAT   D T1000      -1.176   3.763   7.445  1.00 60.04     0.282 A 
HETATM    3  OAZ   D T1000      -2.063   3.925   6.538  1.00 63.91    -0.265 OA
HETATM    4  NAU   D T1000      -1.382   2.927   8.477  1.00 59.30    -0.169 NA
HETATM    5  CAV   D T1000      -0.289   2.988   9.216  1.00 59.13     0.282 A 
HETATM    6  OAX   D T1000      -0.200   2.284  10.270  1.00 59.19    -0.265 OA
HETATM    7  CAJ   D T1000       0.762   3.918   8.693  1.00 59.47     0.064 A 
ENDROOT
BRANCH   1   8
HETATM    8  CAG   D T1000       0.626   5.453   6.390  1.00 60.05     0.023 A 
HETATM    9  CAW   D T1000       1.929   5.382   5.915  1.00 61.31     0.076 A 
HETATM   10  NAH   D T1000       2.059   6.389   4.995  1.00 62.19    -0.326 N 
HETATM   11  CAE   D T1000       0.901   7.079   4.867  1.00 60.17     0.060 A 
HETATM   12  CAF   D T1000       0.502   8.192   4.061  1.00 59.69     0.017 A 
HETATM   13  CAD   D T1000      -0.053   6.503   5.761  1.00 59.51     0.017 A 
HETATM   14  CAA   D T1000      -0.805   8.710   4.146  1.00 60.21     0.002 A 
HETATM   15  CAB   D T1000      -1.756   8.132   5.044  1.00 60.52     0.000 A 
HETATM   16  CAC   D T1000      -1.385   7.020   5.862  1.00 59.56     0.002 A 
BRANCH  10  17
HETATM   17  CAY   D T1000       3.306   6.663   4.265  1.00 63.29     0.108 C 
BRANCH  17  18
HETATM   18  CBA   D T1000       4.310   7.313   5.207  1.00 66.90     0.048 C 
BRANCH  18  19
HETATM   19  CBB   D T1000       5.564   7.611   4.388  1.00 68.12     0.099 C 
BRANCH  19  20
HETATM   20  NBC   D T1000       6.818   7.134   5.022  1.00 69.41    -0.365 N 
HETATM   21  CBD   D T1000       8.023   7.429   4.268  1.00 71.44     0.121 C 
HETATM   22  CBE   D T1000       6.933   6.424   6.297  1.00 69.10     0.121 C 
ENDBRANCH  19  20
ENDBRANCH  18  19
ENDBRANCH  17  18
ENDBRANCH  10  17
ENDBRANCH   1   8
BRANCH   7  23
HETATM   23  CAK   D T1000       2.122   4.174   9.335  1.00 59.62     0.025 A 
HETATM   24  CAM   D T1000       2.897   5.380   9.387  1.00 60.49     0.019 A 
HETATM   25  CAP   D T1000       2.722   6.726   8.910  1.00 60.58     0.002 A 
HETATM   26  CAN   D T1000       4.059   4.985  10.092  1.00 61.04     0.081 A 
HETATM   27  CAQ   D T1000       3.732   7.689   9.142  1.00 59.56     0.000 A 
HETATM   28  CAR   D T1000       4.899   7.299   9.844  1.00 60.35     0.002 A 
HETATM   29  CAS   D T1000       5.088   5.965  10.330  1.00 60.55     0.019 A 
HETATM   30  NAO   D T1000       3.948   3.654  10.420  1.00 60.44    -0.244 NA
HETATM   31  CAL   D T1000       2.785   3.122   9.977  1.00 59.16     0.099 A 
ENDBRANCH   7  23
TORSDOF 6
