REMARK  6 active torsions:
REMARK  status: ('A' for Active; 'I' for Inactive)
REMARK    1  A    between atoms: NBC_2  and  CBB_4 
REMARK    2  A    between atoms: CBB_4  and  CBA_5 
REMARK    3  A    between atoms: CBA_5  and  CAY_6 
REMARK    4  A    between atoms: CAY_6  and  NAH_7 
REMARK    5  A    between atoms: CAG_15  and  CAI_16 
REMARK    6  A    between atoms: CAJ_22  and  CAK_23 
ROOT
HETATM    1  CAI   D T1000      -8.633   2.932  -5.341  1.00 59.57     0.064 A 
HETATM    2  CAT   D T1000      -7.157   3.016  -5.483  1.00 60.04     0.282 A 
HETATM    3  OAZ   D T1000      -6.404   3.693  -4.703  1.00 63.91    -0.265 OA
HETATM    4  NAU   D T1000      -6.643   2.314  -6.508  1.00 59.30    -0.169 NA
HETATM    5  CAV   D T1000      -7.673   1.737  -7.102  1.00 59.13     0.282 A 
HETATM    6  OAX   D T1000      -7.480   0.994  -8.115  1.00 59.19    -0.265 OA
HETATM    7  CAJ   D T1000      -8.999   2.037  -6.476  1.00 59.47     0.064 A 
ENDROOT
BRANCH   1   8
HETATM    8  CAG   D T1000      -9.467   3.628  -4.256  1.00 60.05     0.023 A 
HETATM    9  CAW   D T1000     -10.490   2.940  -3.616  1.00 61.31     0.076 A 
HETATM   10  NAH   D T1000     -11.039   3.817  -2.716  1.00 62.19    -0.326 N 
HETATM   11  CAE   D T1000     -10.404   5.012  -2.758  1.00 60.17     0.060 A 
HETATM   12  CAF   D T1000     -10.571   6.241  -2.042  1.00 59.69     0.017 A 
HETATM   13  CAD   D T1000      -9.379   4.929  -3.750  1.00 59.51     0.017 A 
HETATM   14  CAA   D T1000      -9.740   7.346  -2.309  1.00 60.21     0.002 A 
HETATM   15  CAB   D T1000      -8.716   7.260  -3.305  1.00 60.52     0.000 A 
HETATM   16  CAC   D T1000      -8.528   6.046  -4.035  1.00 59.56     0.002 A 
BRANCH  10  17
HETATM   17  CAY   D T1000     -12.170   3.476  -1.842  1.00 63.29     0.108 C 
BRANCH  17  18
HETATM   18  CBA   D T1000     -13.450   3.429  -2.666  1.00 66.90     0.048 C 
BRANCH  18  19
HETATM   19  CBB   D T1000     -14.591   3.113  -1.701  1.00 68.12     0.099 C 
BRANCH  19  20
HETATM   20  NBC   D T1000     -15.466   2.003  -2.156  1.00 69.41    -0.365 N 
HETATM   21  CBD   D T1000     -16.571   1.704  -1.263  1.00 71.44     0.121 C 
HETATM   22  CBE   D T1000     -15.314   1.222  -3.384  1.00 69.10     0.121 C 
ENDBRANCH  19  20
ENDBRANCH  18  19
ENDBRANCH  17  18
ENDBRANCH  10  17
ENDBRANCH   1   8
BRANCH   7  23
HETATM   23  CAK   D T1000     -10.347   1.499  -6.946  1.00 59.62     0.025 A 
HETATM   24  CAM   D T1000     -11.637   2.124  -6.934  1.00 60.49     0.019 A 
HETATM   25  CAP   D T1000     -12.146   3.405  -6.523  1.00 60.58     0.002 A 
HETATM   26  CAN   D T1000     -12.483   1.125  -7.473  1.00 61.04     0.081 A 
HETATM   27  CAQ   D T1000     -13.526   3.686  -6.651  1.00 59.56     0.000 A 
HETATM   28  CAR   D T1000     -14.379   2.690  -7.187  1.00 60.35     0.002 A 
HETATM   29  CAS   D T1000     -13.890   1.411  -7.605  1.00 60.55     0.019 A 
HETATM   30  NAO   D T1000     -11.726   0.017  -7.773  1.00 60.44    -0.244 NA
HETATM   31  CAL   D T1000     -10.421   0.202  -7.467  1.00 59.16     0.099 A 
ENDBRANCH   7  23
TORSDOF 6
