REMARK  6 active torsions:
REMARK  status: ('A' for Active; 'I' for Inactive)
REMARK    1  A    between atoms: NBC_2  and  CBB_4 
REMARK    2  A    between atoms: CBB_4  and  CBA_5 
REMARK    3  A    between atoms: CBA_5  and  CAY_6 
REMARK    4  A    between atoms: CAY_6  and  NAH_7 
REMARK    5  A    between atoms: CAG_15  and  CAI_16 
REMARK    6  A    between atoms: CAJ_22  and  CAK_23 
ROOT
HETATM    1  CAI   D T1000      -5.156  -2.167   9.625  1.00 59.57     0.064 A 
HETATM    2  CAT   D T1000      -6.512  -1.717   9.218  1.00 60.04     0.282 A 
HETATM    3  OAZ   D T1000      -6.744  -0.617   8.611  1.00 63.91    -0.265 OA
HETATM    4  NAU   D T1000      -7.509  -2.562   9.532  1.00 59.30    -0.169 NA
HETATM    5  CAV   D T1000      -6.938  -3.586  10.140  1.00 59.13     0.282 A 
HETATM    6  OAX   D T1000      -7.651  -4.556  10.547  1.00 59.19    -0.265 OA
HETATM    7  CAJ   D T1000      -5.450  -3.477  10.274  1.00 59.47     0.064 A 
ENDROOT
BRANCH   1   8
HETATM    8  CAG   D T1000      -3.849  -1.399   9.381  1.00 60.05     0.023 A 
HETATM    9  CAW   D T1000      -2.717  -2.073   8.941  1.00 61.31     0.076 A 
HETATM   10  NAH   D T1000      -1.730  -1.129   8.821  1.00 62.19    -0.326 N 
HETATM   11  CAE   D T1000      -2.193   0.099   9.156  1.00 60.17     0.060 A 
HETATM   12  CAF   D T1000      -1.594   1.398   9.199  1.00 59.69     0.017 A 
HETATM   13  CAD   D T1000      -3.565  -0.037   9.531  1.00 59.51     0.017 A 
HETATM   14  CAA   D T1000      -2.343   2.522   9.601  1.00 60.21     0.002 A 
HETATM   15  CAB   D T1000      -3.716   2.381   9.977  1.00 60.52     0.000 A 
HETATM   16  CAC   D T1000      -4.339   1.095   9.945  1.00 59.56     0.002 A 
BRANCH  10  17
HETATM   17  CAY   D T1000      -0.360  -1.441   8.390  1.00 63.29     0.108 C 
BRANCH  17  18
HETATM   18  CBA   D T1000       0.375  -2.152   9.518  1.00 66.90     0.048 C 
BRANCH  18  19
HETATM   19  CBB   D T1000       1.799  -2.413   9.030  1.00 68.12     0.099 C 
BRANCH  19  20
HETATM   20  NBC   D T1000       2.248  -3.814   9.224  1.00 69.41    -0.365 N 
HETATM   21  CBD   D T1000       3.608  -4.075   8.787  1.00 71.44     0.121 C 
HETATM   22  CBE   D T1000       1.466  -4.907   9.803  1.00 69.10     0.121 C 
ENDBRANCH  19  20
ENDBRANCH  18  19
ENDBRANCH  17  18
ENDBRANCH  10  17
ENDBRANCH   1   8
BRANCH   7  23
HETATM   23  CAK   D T1000      -4.537  -4.515  10.920  1.00 59.62     0.025 A 
HETATM   24  CAM   D T1000      -3.337  -4.329  11.682  1.00 60.49     0.019 A 
HETATM   25  CAP   D T1000      -2.575  -3.193  12.124  1.00 60.58     0.002 A 
HETATM   26  CAN   D T1000      -2.941  -5.655  11.984  1.00 61.04     0.081 A 
HETATM   27  CAQ   D T1000      -1.394  -3.390  12.879  1.00 59.56     0.000 A 
HETATM   28  CAR   D T1000      -0.991  -4.713  13.182  1.00 60.35     0.002 A 
HETATM   29  CAS   D T1000      -1.739  -5.857  12.754  1.00 60.55     0.019 A 
HETATM   30  NAO   D T1000      -3.854  -6.526  11.437  1.00 60.44    -0.244 NA
HETATM   31  CAL   D T1000      -4.840  -5.874  10.779  1.00 59.16     0.099 A 
ENDBRANCH   7  23
TORSDOF 6
