REMARK  6 active torsions:
REMARK  status: ('A' for Active; 'I' for Inactive)
REMARK    1  A    between atoms: NBC_2  and  CBB_4 
REMARK    2  A    between atoms: CBB_4  and  CBA_5 
REMARK    3  A    between atoms: CBA_5  and  CAY_6 
REMARK    4  A    between atoms: CAY_6  and  NAH_7 
REMARK    5  A    between atoms: CAG_15  and  CAI_16 
REMARK    6  A    between atoms: CAJ_22  and  CAK_23 
ROOT
HETATM    1  CAI   D T1000       6.878   1.285  -7.450  1.00 59.57     0.064 A 
HETATM    2  CAT   D T1000       5.799   1.481  -8.451  1.00 60.04     0.282 A 
HETATM    3  OAZ   D T1000       4.858   0.641  -8.658  1.00 63.91    -0.265 OA
HETATM    4  NAU   D T1000       5.869   2.630  -9.146  1.00 59.30    -0.169 NA
HETATM    5  CAV   D T1000       6.939   3.261  -8.693  1.00 59.13     0.282 A 
HETATM    6  OAX   D T1000       7.251   4.396  -9.173  1.00 59.19    -0.265 OA
HETATM    7  CAJ   D T1000       7.681   2.531  -7.618  1.00 59.47     0.064 A 
ENDROOT
BRANCH   1   8
HETATM    8  CAG   D T1000       7.027   0.070  -6.523  1.00 60.05     0.023 A 
HETATM    9  CAW   D T1000       7.356   0.250  -5.186  1.00 61.31     0.076 A 
HETATM   10  NAH   D T1000       7.415  -1.002  -4.632  1.00 62.19    -0.326 N 
HETATM   11  CAE   D T1000       7.132  -1.952  -5.555  1.00 60.17     0.060 A 
HETATM   12  CAF   D T1000       7.053  -3.381  -5.505  1.00 59.69     0.017 A 
HETATM   13  CAD   D T1000       6.879  -1.294  -6.798  1.00 59.51     0.017 A 
HETATM   14  CAA   D T1000       6.730  -4.123  -6.658  1.00 60.21     0.002 A 
HETATM   15  CAB   D T1000       6.479  -3.461  -7.901  1.00 60.52     0.000 A 
HETATM   16  CAC   D T1000       6.553  -2.035  -7.980  1.00 59.56     0.002 A 
BRANCH  10  17
HETATM   17  CAY   D T1000       7.751  -1.249  -3.223  1.00 63.29     0.108 C 
BRANCH  17  18
HETATM   18  CBA   D T1000       9.241  -1.020  -3.011  1.00 66.90     0.048 C 
BRANCH  18  19
HETATM   19  CBB   D T1000       9.537  -1.330  -1.545  1.00 68.12     0.099 C 
BRANCH  19  20
HETATM   20  NBC   D T1000      10.313  -0.269  -0.856  1.00 69.41    -0.365 N 
HETATM   21  CBD   D T1000      10.624  -0.557   0.533  1.00 71.44     0.121 C 
HETATM   22  CBE   D T1000      10.776   0.990  -1.441  1.00 69.10     0.121 C 
ENDBRANCH  19  20
ENDBRANCH  18  19
ENDBRANCH  17  18
ENDBRANCH  10  17
ENDBRANCH   1   8
BRANCH   7  23
HETATM   23  CAK   D T1000       8.938   3.027  -6.910  1.00 59.62     0.025 A 
HETATM   24  CAM   D T1000      10.063   2.287  -6.415  1.00 60.49     0.019 A 
HETATM   25  CAP   D T1000      10.441   0.900  -6.394  1.00 60.58     0.002 A 
HETATM   26  CAN   D T1000      10.883   3.292  -5.849  1.00 61.04     0.081 A 
HETATM   27  CAQ   D T1000      11.663   0.515  -5.792  1.00 59.56     0.000 A 
HETATM   28  CAR   D T1000      12.487   1.515  -5.221  1.00 60.35     0.002 A 
HETATM   29  CAS   D T1000      12.128   2.901  -5.236  1.00 60.55     0.019 A 
HETATM   30  NAO   D T1000      10.271   4.512  -6.016  1.00 60.44    -0.244 NA
HETATM   31  CAL   D T1000       9.085   4.395  -6.655  1.00 59.16     0.099 A 
ENDBRANCH   7  23
TORSDOF 6
