REMARK  2 active torsions:
REMARK  status: ('A' for Active; 'I' for Inactive)
REMARK    1  A    between atoms: C5_4  and  O7_13 
REMARK    2  A    between atoms: C8_10  and  O7_13 
ROOT
HETATM    1  O7    D T 300       6.510   2.236  -6.771  1.00 46.51    -0.304 OA
ENDROOT
BRANCH   1   2
HETATM    2  C5    D T 300       6.323   2.107  -8.130  1.00 44.54     0.125 A 
HETATM    3  C6    D T 300       5.990   0.767  -8.700  1.00 44.38     0.154 A 
HETATM    4  C1    D T 300       5.809   0.645 -10.078  1.00 43.97     0.041 A 
HETATM    5  O17   D T 300       5.880  -0.298  -7.911  1.00 43.04    -0.188 OA
HETATM    6  C2    D T 300       5.920   1.749 -10.914  1.00 44.46     0.060 A 
HETATM    7  C3    D T 300       6.224   3.020 -10.388  1.00 44.32     0.014 A 
HETATM    8 CL14   D T 300       5.665   1.510 -12.678  1.00 44.72    -0.082 Cl
HETATM    9  C4    D T 300       6.426   3.198  -9.011  1.00 44.42     0.028 A 
ENDBRANCH   1   2
BRANCH   1  10
HETATM   10  C8    D T 300       7.689   2.553  -6.127  1.00 47.94     0.111 A 
HETATM   11  C9    D T 300       7.669   3.268  -4.819  1.00 48.66     0.081 A 
HETATM   12  C10   D T 300       8.845   3.581  -4.165  1.00 48.78     0.025 A 
HETATM   13 CL16   D T 300       6.171   3.775  -4.003  1.00 51.01    -0.080 Cl
HETATM   14  C11   D T 300      10.063   3.220  -4.721  1.00 48.52     0.059 A 
HETATM   15  C12   D T 300      10.112   2.549  -5.938  1.00 49.14     0.013 A 
HETATM   16 CL15   D T 300      11.560   3.640  -3.829  1.00 49.12    -0.082 Cl
HETATM   17  C13   D T 300       8.944   2.213  -6.643  1.00 49.45     0.026 A 
ENDBRANCH   1  10
TORSDOF 2
