REMARK  2 active torsions:
REMARK  status: ('A' for Active; 'I' for Inactive)
REMARK    1  A    between atoms: C5_4  and  O7_13 
REMARK    2  A    between atoms: C8_10  and  O7_13 
ROOT
HETATM    1  O7    D T 300       7.711   1.584  -6.122  1.00 46.51    -0.304 OA
ENDROOT
BRANCH   1   2
HETATM    2  C5    D T 300       7.656   1.480  -7.495  1.00 44.54     0.125 A 
HETATM    3  C6    D T 300       7.235   0.188  -8.116  1.00 44.38     0.154 A 
HETATM    4  C1    D T 300       7.190   0.090  -9.507  1.00 43.97     0.041 A 
HETATM    5  O17   D T 300       6.920  -0.858  -7.359  1.00 43.04    -0.188 OA
HETATM    6  C2    D T 300       7.515   1.176 -10.311  1.00 44.46     0.060 A 
HETATM    7  C3    D T 300       7.904   2.403  -9.737  1.00 44.32     0.014 A 
HETATM    8 CL14   D T 300       7.424   0.971 -12.096  1.00 44.72    -0.082 Cl
HETATM    9  C4    D T 300       7.977   2.553  -8.344  1.00 44.42     0.028 A 
ENDBRANCH   1   2
BRANCH   1  10
HETATM   10  C8    D T 300       8.843   1.761  -5.353  1.00 47.94     0.111 A 
HETATM   11  C9    D T 300       8.766   2.470  -4.043  1.00 48.66     0.081 A 
HETATM   12  C10   D T 300       9.893   2.645  -3.264  1.00 48.78     0.025 A 
HETATM   13 CL16   D T 300       7.256   3.145  -3.384  1.00 51.01    -0.080 Cl
HETATM   14  C11   D T 300      11.114   2.147  -3.693  1.00 48.52     0.059 A 
HETATM   15  C12   D T 300      11.216   1.477  -4.908  1.00 49.14     0.013 A 
HETATM   16 CL15   D T 300      12.545   2.390  -2.642  1.00 49.12    -0.082 Cl
HETATM   17  C13   D T 300      10.099   1.279  -5.737  1.00 49.45     0.026 A 
ENDBRANCH   1  10
TORSDOF 2
