REMARK  2 active torsions:
REMARK  status: ('A' for Active; 'I' for Inactive)
REMARK    1  A    between atoms: C5_4  and  O7_13 
REMARK    2  A    between atoms: C8_10  and  O7_13 
ROOT
HETATM    1  O7    D T 300      16.672  10.884  10.776  1.00 46.51    -0.304 OA
ENDROOT
BRANCH   1   2
HETATM    2  C5    D T 300      15.557  11.597  10.393  1.00 44.54     0.125 A 
HETATM    3  C6    D T 300      14.451  10.896   9.673  1.00 44.38     0.154 A 
HETATM    4  C1    D T 300      13.329  11.628   9.283  1.00 43.97     0.041 A 
HETATM    5  O17   D T 300      14.537   9.599   9.395  1.00 43.04    -0.188 OA
HETATM    6  C2    D T 300      13.225  12.984   9.568  1.00 44.46     0.060 A 
HETATM    7  C3    D T 300      14.257  13.654  10.255  1.00 44.32     0.014 A 
HETATM    8 CL14   D T 300      11.743  13.854   9.038  1.00 44.72    -0.082 Cl
HETATM    9  C4    D T 300      15.412  12.969  10.661  1.00 44.42     0.028 A 
ENDBRANCH   1   2
BRANCH   1  10
HETATM   10  C8    D T 300      17.957  11.041  10.295  1.00 47.94     0.111 A 
HETATM   11  C9    D T 300      19.132  10.723  11.156  1.00 48.66     0.081 A 
HETATM   12  C10   D T 300      20.420  10.870  10.679  1.00 48.78     0.025 A 
HETATM   13 CL16   D T 300      18.988  10.147  12.834  1.00 51.01    -0.080 Cl
HETATM   14  C11   D T 300      20.631  11.307   9.380  1.00 48.52     0.059 A 
HETATM   15  C12   D T 300      19.554  11.607   8.553  1.00 49.14     0.013 A 
HETATM   16 CL15   D T 300      22.320  11.472   8.805  1.00 49.12    -0.082 Cl
HETATM   17  C13   D T 300      18.226  11.478   8.994  1.00 49.45     0.026 A 
ENDBRANCH   1  10
TORSDOF 2
