REMARK  2 active torsions:
REMARK  status: ('A' for Active; 'I' for Inactive)
REMARK    1  A    between atoms: C5_4  and  O7_13 
REMARK    2  A    between atoms: C8_10  and  O7_13 
ROOT
HETATM    1  O7    D T 300       7.972   1.824  -5.850  1.00 46.51    -0.304 OA
ENDROOT
BRANCH   1   2
HETATM    2  C5    D T 300       7.930   1.838  -7.227  1.00 44.54     0.125 A 
HETATM    3  C6    D T 300       7.452   0.626  -7.958  1.00 44.38     0.154 A 
HETATM    4  C1    D T 300       7.420   0.648  -9.353  1.00 43.97     0.041 A 
HETATM    5  O17   D T 300       7.074  -0.462  -7.294  1.00 43.04    -0.188 OA
HETATM    6  C2    D T 300       7.811   1.778 -10.060  1.00 44.46     0.060 A 
HETATM    7  C3    D T 300       8.254   2.931  -9.381  1.00 44.32     0.014 A 
HETATM    8 CL14   D T 300       7.733   1.729 -11.856  1.00 44.72    -0.082 Cl
HETATM    9  C4    D T 300       8.316   2.960  -7.980  1.00 44.42     0.028 A 
ENDBRANCH   1   2
BRANCH   1  10
HETATM   10  C8    D T 300       9.102   1.877  -5.058  1.00 47.94     0.111 A 
HETATM   11  C9    D T 300       9.043   2.478  -3.694  1.00 48.66     0.081 A 
HETATM   12  C10   D T 300      10.168   2.528  -2.893  1.00 48.78     0.025 A 
HETATM   13 CL16   D T 300       7.561   3.172  -2.994  1.00 51.01    -0.080 Cl
HETATM   14  C11   D T 300      11.367   2.004  -3.352  1.00 48.52     0.059 A 
HETATM   15  C12   D T 300      11.450   1.435  -4.617  1.00 49.14     0.013 A 
HETATM   16 CL15   D T 300      12.794   2.084  -2.271  1.00 49.12    -0.082 Cl
HETATM   17  C13   D T 300      10.336   1.365  -5.470  1.00 49.45     0.026 A 
ENDBRANCH   1  10
TORSDOF 2
