REMARK  6 active torsions:
REMARK  status: ('A' for Active; 'I' for Inactive)
REMARK    1  A    between atoms: NBC_2  and  CBB_4 
REMARK    2  A    between atoms: CBB_4  and  CBA_5 
REMARK    3  A    between atoms: CBA_5  and  CAY_6 
REMARK    4  A    between atoms: CAY_6  and  NAH_7 
REMARK    5  A    between atoms: CAG_15  and  CAI_16 
REMARK    6  A    between atoms: CAJ_22  and  CAK_23 
ROOT
HETATM    1  CAI   D T1307      -9.084   3.007  -5.577  1.00 44.72     0.064 A 
HETATM    2  CAT   D T1307      -7.624   3.015  -5.856  1.00 42.93     0.282 A 
HETATM    3  OAZ   D T1307      -6.804   3.837  -5.305  1.00 41.82    -0.265 OA
HETATM    4  NAU   D T1307      -7.217   2.076  -6.773  1.00 41.25    -0.169 NA
HETATM    5  CAV   D T1307      -8.338   1.397  -7.128  1.00 41.79     0.282 A 
HETATM    6  OAX   D T1307      -8.321   0.417  -7.975  1.00 43.23    -0.265 OA
HETATM    7  CAJ   D T1307      -9.543   1.927  -6.460  1.00 41.06     0.064 A 
ENDROOT
BRANCH   1   8
HETATM    8  CAG   D T1307      -9.806   3.867  -4.565  1.00 45.56     0.023 A 
HETATM    9  CAW   D T1307     -10.933   3.455  -3.861  1.00 46.69     0.076 A 
HETATM   10  NAH   D T1307     -11.272   4.475  -3.011  1.00 47.96    -0.326 N 
HETATM   11  CAE   D T1307     -10.380   5.482  -3.129  1.00 47.40     0.060 A 
HETATM   12  CAF   D T1307     -10.287   6.703  -2.466  1.00 46.84     0.017 A 
HETATM   13  CAD   D T1307      -9.422   5.129  -4.088  1.00 47.14     0.017 A 
HETATM   14  CAA   D T1307      -9.274   7.609  -2.765  1.00 46.26     0.002 A 
HETATM   15  CAB   D T1307      -8.334   7.275  -3.727  1.00 47.22     0.000 A 
HETATM   16  CAC   D T1307      -8.405   6.032  -4.394  1.00 47.34     0.002 A 
BRANCH  10  17
HETATM   17  CAY   D T1307     -12.371   4.542  -2.033  1.00 47.35     0.108 C 
BRANCH  17  18
HETATM   18  CBA   D T1307     -13.494   3.532  -2.252  1.00 49.36     0.048 C 
BRANCH  18  19
HETATM   19  CBB   D T1307     -14.561   3.736  -1.159  1.00 49.76     0.099 C 
BRANCH  19  20
HETATM   20  NBC   D T1307     -15.902   3.268  -1.561  1.00 50.82    -0.365 N 
HETATM   21  CBD   D T1307     -16.981   3.538  -0.635  1.00 49.65     0.121 C 
HETATM   22  CBE   D T1307     -16.188   2.542  -2.811  1.00 51.10     0.121 C 
ENDBRANCH  19  20
ENDBRANCH  18  19
ENDBRANCH  17  18
ENDBRANCH  10  17
ENDBRANCH   1   8
BRANCH   7  23
HETATM   23  CAK   D T1307     -10.902   1.376  -6.527  1.00 42.28     0.025 A 
HETATM   24  CAM   D T1307     -12.035   2.165  -6.326  1.00 43.03     0.019 A 
HETATM   25  CAP   D T1307     -12.245   3.565  -6.113  1.00 40.17     0.002 A 
HETATM   26  CAN   D T1307     -13.072   1.223  -6.385  1.00 41.89     0.081 A 
HETATM   27  CAQ   D T1307     -13.541   4.052  -5.973  1.00 40.87     0.000 A 
HETATM   28  CAR   D T1307     -14.604   3.134  -6.056  1.00 41.97     0.002 A 
HETATM   29  CAS   D T1307     -14.381   1.738  -6.254  1.00 41.64     0.019 A 
HETATM   30  NAO   D T1307     -12.521  -0.034  -6.589  1.00 41.75    -0.244 NA
HETATM   31  CAL   D T1307     -11.164   0.022  -6.675  1.00 40.82     0.099 A 
ENDBRANCH   7  23
TORSDOF 6
