REMARK  6 active torsions:
REMARK  status: ('A' for Active; 'I' for Inactive)
REMARK    1  A    between atoms: NBC_2  and  CBB_4 
REMARK    2  A    between atoms: CBB_4  and  CBA_5 
REMARK    3  A    between atoms: CBA_5  and  CAY_6 
REMARK    4  A    between atoms: CAY_6  and  NAH_7 
REMARK    5  A    between atoms: CAG_15  and  CAI_16 
REMARK    6  A    between atoms: CAJ_22  and  CAK_23 
ROOT
HETATM    1  CAI   D T1307       7.177   1.077  -7.324  1.00 44.72     0.064 A 
HETATM    2  CAT   D T1307       6.174   1.401  -8.372  1.00 42.93     0.282 A 
HETATM    3  OAZ   D T1307       5.336   0.546  -8.836  1.00 41.82    -0.265 OA
HETATM    4  NAU   D T1307       6.227   2.697  -8.826  1.00 41.25    -0.169 NA
HETATM    5  CAV   D T1307       7.216   3.296  -8.114  1.00 41.79     0.282 A 
HETATM    6  OAX   D T1307       7.533   4.542  -8.273  1.00 43.23    -0.265 OA
HETATM    7  CAJ   D T1307       7.878   2.360  -7.185  1.00 41.06     0.064 A 
ENDROOT
BRANCH   1   8
HETATM    8  CAG   D T1307       7.308  -0.237  -6.587  1.00 45.56     0.023 A 
HETATM    9  CAW   D T1307       7.731  -0.346  -5.266  1.00 46.69     0.076 A 
HETATM   10  NAH   D T1307       7.677  -1.674  -4.935  1.00 47.96    -0.326 N 
HETATM   11  CAE   D T1307       7.198  -2.385  -5.978  1.00 47.40     0.060 A 
HETATM   12  CAF   D T1307       6.940  -3.747  -6.114  1.00 46.84     0.017 A 
HETATM   13  CAD   D T1307       6.932  -1.510  -7.039  1.00 47.14     0.017 A 
HETATM   14  CAA   D T1307       6.453  -4.271  -7.308  1.00 46.26     0.002 A 
HETATM   15  CAB   D T1307       6.206  -3.413  -8.369  1.00 47.22     0.000 A 
HETATM   16  CAC   D T1307       6.446  -2.028  -8.238  1.00 47.34     0.002 A 
BRANCH  10  17
HETATM   17  CAY   D T1307       7.998  -2.325  -3.653  1.00 47.35     0.108 C 
BRANCH  17  18
HETATM   18  CBA   D T1307       8.856  -1.493  -2.703  1.00 49.36     0.048 C 
BRANCH  18  19
HETATM   19  CBB   D T1307       9.107  -2.312  -1.422  1.00 49.76     0.099 C 
BRANCH  19  20
HETATM   20  NBC   D T1307      10.334  -1.910  -0.707  1.00 50.82    -0.365 N 
HETATM   21  CBD   D T1307      10.703  -2.714   0.440  1.00 49.65     0.121 C 
HETATM   22  CBE   D T1307      11.168  -0.752  -1.074  1.00 51.10     0.121 C 
ENDBRANCH  19  20
ENDBRANCH  18  19
ENDBRANCH  17  18
ENDBRANCH  10  17
ENDBRANCH   1   8
BRANCH   7  23
HETATM   23  CAK   D T1307       8.911   2.684  -6.194  1.00 42.28     0.025 A 
HETATM   24  CAM   D T1307       9.829   1.736  -5.739  1.00 43.03     0.019 A 
HETATM   25  CAP   D T1307      10.102   0.374  -6.083  1.00 40.17     0.002 A 
HETATM   26  CAN   D T1307      10.536   2.448  -4.759  1.00 41.89     0.081 A 
HETATM   27  CAQ   D T1307      11.136  -0.302  -5.442  1.00 40.87     0.000 A 
HETATM   28  CAR   D T1307      11.882   0.395  -4.475  1.00 41.97     0.002 A 
HETATM   29  CAS   D T1307      11.589   1.749  -4.130  1.00 41.64     0.019 A 
HETATM   30  NAO   D T1307      10.008   3.729  -4.671  1.00 41.75    -0.244 NA
HETATM   31  CAL   D T1307       8.984   3.909  -5.548  1.00 40.82     0.099 A 
ENDBRANCH   7  23
TORSDOF 6
