REMARK  6 active torsions:
REMARK  status: ('A' for Active; 'I' for Inactive)
REMARK    1  A    between atoms: NBC_2  and  CBB_4 
REMARK    2  A    between atoms: CBB_4  and  CBA_5 
REMARK    3  A    between atoms: CBA_5  and  CAY_6 
REMARK    4  A    between atoms: CAY_6  and  NAH_7 
REMARK    5  A    between atoms: CAG_15  and  CAI_16 
REMARK    6  A    between atoms: CAJ_22  and  CAK_23 
ROOT
HETATM    1  CAI   D T1307       5.363   1.699  -8.205  1.00 44.72     0.064 A 
HETATM    2  CAT   D T1307       4.596   0.694  -8.987  1.00 42.93     0.282 A 
HETATM    3  OAZ   D T1307       4.644  -0.569  -8.754  1.00 41.82    -0.265 OA
HETATM    4  NAU   D T1307       3.838   1.224 -10.002  1.00 41.25    -0.169 NA
HETATM    5  CAV   D T1307       4.030   2.567  -9.943  1.00 41.79     0.282 A 
HETATM    6  OAX   D T1307       3.447   3.392 -10.754  1.00 43.23    -0.265 OA
HETATM    7  CAJ   D T1307       4.983   2.945  -8.882  1.00 41.06     0.064 A 
ENDROOT
BRANCH   1   8
HETATM    8  CAG   D T1307       6.220   1.423  -6.990  1.00 45.56     0.023 A 
HETATM    9  CAW   D T1307       6.380   2.316  -5.936  1.00 46.69     0.076 A 
HETATM   10  NAH   D T1307       7.179   1.704  -5.007  1.00 47.96    -0.326 N 
HETATM   11  CAE   D T1307       7.485   0.455  -5.421  1.00 47.40     0.060 A 
HETATM   12  CAF   D T1307       8.238  -0.549  -4.817  1.00 46.84     0.017 A 
HETATM   13  CAD   D T1307       6.880   0.229  -6.664  1.00 47.14     0.017 A 
HETATM   14  CAA   D T1307       8.436  -1.775  -5.446  1.00 46.26     0.002 A 
HETATM   15  CAB   D T1307       7.857  -1.998  -6.685  1.00 47.22     0.000 A 
HETATM   16  CAC   D T1307       7.076  -0.995  -7.300  1.00 47.34     0.002 A 
BRANCH  10  17
HETATM   17  CAY   D T1307       7.636   2.206  -3.700  1.00 47.35     0.108 C 
BRANCH  17  18
HETATM   18  CBA   D T1307       7.538   3.718  -3.518  1.00 49.36     0.048 C 
BRANCH  18  19
HETATM   19  CBB   D T1307       8.058   4.080  -2.113  1.00 49.76     0.099 C 
BRANCH  19  20
HETATM   20  NBC   D T1307       8.553   5.467  -2.017  1.00 50.82    -0.365 N 
HETATM   21  CBD   D T1307       9.170   5.844  -0.762  1.00 49.65     0.121 C 
HETATM   22  CBE   D T1307       8.437   6.468  -3.092  1.00 51.10     0.121 C 
ENDBRANCH  19  20
ENDBRANCH  18  19
ENDBRANCH  17  18
ENDBRANCH  10  17
ENDBRANCH   1   8
BRANCH   7  23
HETATM   23  CAK   D T1307       5.346   4.306  -8.467  1.00 42.28     0.025 A 
HETATM   24  CAM   D T1307       6.570   4.598  -7.863  1.00 43.03     0.019 A 
HETATM   25  CAP   D T1307       7.741   3.829  -7.569  1.00 40.17     0.002 A 
HETATM   26  CAN   D T1307       6.439   5.961  -7.561  1.00 41.89     0.081 A 
HETATM   27  CAQ   D T1307       8.835   4.444  -6.969  1.00 40.87     0.000 A 
HETATM   28  CAR   D T1307       8.743   5.818  -6.680  1.00 41.97     0.002 A 
HETATM   29  CAS   D T1307       7.565   6.571  -6.965  1.00 41.64     0.019 A 
HETATM   30  NAO   D T1307       5.182   6.388  -7.966  1.00 41.75    -0.244 NA
HETATM   31  CAL   D T1307       4.468   5.378  -8.530  1.00 40.82     0.099 A 
ENDBRANCH   7  23
TORSDOF 6
