REMARK  6 active torsions:
REMARK  status: ('A' for Active; 'I' for Inactive)
REMARK    1  A    between atoms: NBC_2  and  CBB_4 
REMARK    2  A    between atoms: CBB_4  and  CBA_5 
REMARK    3  A    between atoms: CBA_5  and  CAY_6 
REMARK    4  A    between atoms: CAY_6  and  NAH_7 
REMARK    5  A    between atoms: CAG_15  and  CAI_16 
REMARK    6  A    between atoms: CAJ_22  and  CAK_23 
ROOT
HETATM    1  CAI   D T1307       0.299   4.829   7.529  1.00 44.72     0.064 A 
HETATM    2  CAT   D T1307      -0.983   4.089   7.663  1.00 42.93     0.282 A 
HETATM    3  OAZ   D T1307      -2.025   4.349   6.957  1.00 41.82    -0.265 OA
HETATM    4  NAU   D T1307      -0.973   3.107   8.624  1.00 41.25    -0.169 NA
HETATM    5  CAV   D T1307       0.278   3.120   9.151  1.00 41.79     0.282 A 
HETATM    6  OAX   D T1307       0.650   2.302  10.084  1.00 43.23    -0.265 OA
HETATM    7  CAJ   D T1307       1.121   4.173   8.554  1.00 41.06     0.064 A 
ENDROOT
BRANCH   1   8
HETATM    8  CAG   D T1307       0.611   5.904   6.512  1.00 45.56     0.023 A 
HETATM    9  CAW   D T1307       1.872   6.112   5.964  1.00 46.69     0.076 A 
HETATM   10  NAH   D T1307       1.755   7.129   5.056  1.00 47.96    -0.326 N 
HETATM   11  CAE   D T1307       0.467   7.532   4.987  1.00 47.40     0.060 A 
HETATM   12  CAF   D T1307      -0.145   8.506   4.201  1.00 46.84     0.017 A 
HETATM   13  CAD   D T1307      -0.295   6.768   5.879  1.00 47.14     0.017 A 
HETATM   14  CAA   D T1307      -1.508   8.765   4.310  1.00 46.26     0.002 A 
HETATM   15  CAB   D T1307      -2.265   8.026   5.205  1.00 47.22     0.000 A 
HETATM   16  CAC   D T1307      -1.661   7.023   5.994  1.00 47.34     0.002 A 
BRANCH  10  17
HETATM   17  CAY   D T1307       2.785   7.723   4.187  1.00 47.35     0.108 C 
BRANCH  17  18
HETATM   18  CBA   D T1307       4.225   7.448   4.612  1.00 49.36     0.048 C 
BRANCH  18  19
HETATM   19  CBB   D T1307       5.174   8.138   3.613  1.00 49.76     0.099 C 
BRANCH  19  20
HETATM   20  NBC   D T1307       6.499   8.446   4.188  1.00 50.82    -0.365 N 
HETATM   21  CBD   D T1307       7.403   9.204   3.348  1.00 49.65     0.121 C 
HETATM   22  CBE   D T1307       6.945   8.016   5.525  1.00 51.10     0.121 C 
ENDBRANCH  19  20
ENDBRANCH  18  19
ENDBRANCH  17  18
ENDBRANCH  10  17
ENDBRANCH   1   8
BRANCH   7  23
HETATM   23  CAK   D T1307       2.549   4.409   8.807  1.00 42.28     0.025 A 
HETATM   24  CAM   D T1307       3.137   5.663   8.640  1.00 43.03     0.019 A 
HETATM   25  CAP   D T1307       2.631   6.961   8.312  1.00 40.17     0.002 A 
HETATM   26  CAN   D T1307       4.490   5.397   8.891  1.00 41.89     0.081 A 
HETATM   27  CAQ   D T1307       3.502   8.044   8.251  1.00 40.87     0.000 A 
HETATM   28  CAR   D T1307       4.863   7.812   8.527  1.00 41.97     0.002 A 
HETATM   29  CAS   D T1307       5.357   6.511   8.838  1.00 41.64     0.019 A 
HETATM   30  NAO   D T1307       4.635   4.044   9.163  1.00 41.75    -0.244 NA
HETATM   31  CAL   D T1307       3.442   3.392   9.111  1.00 40.82     0.099 A 
ENDBRANCH   7  23
TORSDOF 6
