REMARK  6 active torsions:
REMARK  status: ('A' for Active; 'I' for Inactive)
REMARK    1  A    between atoms: NBC_2  and  CBB_4 
REMARK    2  A    between atoms: CBB_4  and  CBA_5 
REMARK    3  A    between atoms: CBA_5  and  CAY_6 
REMARK    4  A    between atoms: CAY_6  and  NAH_7 
REMARK    5  A    between atoms: CAG_15  and  CAI_16 
REMARK    6  A    between atoms: CAJ_22  and  CAK_23 
ROOT
HETATM    1  CAI   D T1307      -1.594  -4.231 -11.971  1.00 44.72     0.064 A 
HETATM    2  CAT   D T1307      -0.683  -5.405 -11.943  1.00 42.93     0.282 A 
HETATM    3  OAZ   D T1307       0.508  -5.364 -11.463  1.00 41.82    -0.265 OA
HETATM    4  NAU   D T1307      -1.213  -6.547 -12.494  1.00 41.25    -0.169 NA
HETATM    5  CAV   D T1307      -2.471  -6.218 -12.886  1.00 41.79     0.282 A 
HETATM    6  OAX   D T1307      -3.275  -7.070 -13.439  1.00 43.23    -0.265 OA
HETATM    7  CAJ   D T1307      -2.778  -4.798 -12.628  1.00 41.06     0.064 A 
ENDROOT
BRANCH   1   8
HETATM    8  CAG   D T1307      -1.317  -2.870 -11.373  1.00 45.56     0.023 A 
HETATM    9  CAW   D T1307      -2.299  -2.048 -10.829  1.00 46.69     0.076 A 
HETATM   10  NAH   D T1307      -1.668  -0.931 -10.349  1.00 47.96    -0.326 N 
HETATM   11  CAE   D T1307      -0.335  -1.045 -10.534  1.00 47.40     0.060 A 
HETATM   12  CAF   D T1307       0.711  -0.191 -10.193  1.00 46.84     0.017 A 
HETATM   13  CAD   D T1307      -0.068  -2.269 -11.161  1.00 47.14     0.017 A 
HETATM   14  CAA   D T1307       2.030  -0.513 -10.500  1.00 46.26     0.002 A 
HETATM   15  CAB   D T1307       2.300  -1.713 -11.138  1.00 47.22     0.000 A 
HETATM   16  CAC   D T1307       1.251  -2.596 -11.472  1.00 47.34     0.002 A 
BRANCH  10  17
HETATM   17  CAY   D T1307      -2.244   0.237  -9.660  1.00 47.35     0.108 C 
BRANCH  17  18
HETATM   18  CBA   D T1307      -3.749   0.416  -9.840  1.00 49.36     0.048 C 
BRANCH  18  19
HETATM   19  CBB   D T1307      -4.190   1.676  -9.071  1.00 49.76     0.099 C 
BRANCH  19  20
HETATM   20  NBC   D T1307      -5.428   2.278  -9.604  1.00 50.82    -0.365 N 
HETATM   21  CBD   D T1307      -5.839   3.534  -9.011  1.00 49.65     0.121 C 
HETATM   22  CBE   D T1307      -6.256   1.675 -10.663  1.00 51.10     0.121 C 
ENDBRANCH  19  20
ENDBRANCH  18  19
ENDBRANCH  17  18
ENDBRANCH  10  17
ENDBRANCH   1   8
BRANCH   7  23
HETATM   23  CAK   D T1307      -4.069  -4.125 -12.827  1.00 42.28     0.025 A 
HETATM   24  CAM   D T1307      -4.163  -2.752 -13.062  1.00 43.03     0.019 A 
HETATM   25  CAP   D T1307      -3.202  -1.710 -13.254  1.00 40.17     0.002 A 
HETATM   26  CAN   D T1307      -5.550  -2.548 -13.090  1.00 41.89     0.081 A 
HETATM   27  CAQ   D T1307      -3.637  -0.412 -13.504  1.00 40.87     0.000 A 
HETATM   28  CAR   D T1307      -5.024  -0.181 -13.566  1.00 41.97     0.002 A 
HETATM   29  CAS   D T1307      -5.972  -1.227 -13.359  1.00 41.64     0.019 A 
HETATM   30  NAO   D T1307      -6.184  -3.760 -12.857  1.00 41.75    -0.244 NA
HETATM   31  CAL   D T1307      -5.289  -4.768 -12.680  1.00 40.82     0.099 A 
ENDBRANCH   7  23
TORSDOF 6
