REMARK  6 active torsions:
REMARK  status: ('A' for Active; 'I' for Inactive)
REMARK    1  A    between atoms: NBC_2  and  CBB_4 
REMARK    2  A    between atoms: CBB_4  and  CBA_5 
REMARK    3  A    between atoms: CBA_5  and  CAY_6 
REMARK    4  A    between atoms: CAY_6  and  NAH_7 
REMARK    5  A    between atoms: CAG_15  and  CAI_16 
REMARK    6  A    between atoms: CAJ_22  and  CAK_23 
ROOT
HETATM    1  CAI   D T1307       3.273  11.721   2.048  1.00 44.72     0.064 A 
HETATM    2  CAT   D T1307       2.065  11.047   2.590  1.00 42.93     0.282 A 
HETATM    3  OAZ   D T1307       0.881  11.238   2.129  1.00 41.82    -0.265 OA
HETATM    4  NAU   D T1307       2.312  10.206   3.649  1.00 41.25    -0.169 NA
HETATM    5  CAV   D T1307       3.654  10.253   3.850  1.00 41.79     0.282 A 
HETATM    6  OAX   D T1307       4.246   9.561   4.772  1.00 43.23    -0.265 OA
HETATM    7  CAJ   D T1307       4.322  11.189   2.925  1.00 41.06     0.064 A 
ENDROOT
BRANCH   1   8
HETATM    8  CAG   D T1307       3.322  12.637   0.845  1.00 45.56     0.023 A 
HETATM    9  CAW   D T1307       4.411  12.728  -0.016  1.00 46.69     0.076 A 
HETATM   10  NAH   D T1307       4.071  13.615  -1.003  1.00 47.96    -0.326 N 
HETATM   11  CAE   D T1307       2.804  14.043  -0.814  1.00 47.40     0.060 A 
HETATM   12  CAF   D T1307       2.015  14.918  -1.557  1.00 46.84     0.017 A 
HETATM   13  CAD   D T1307       2.286  13.432   0.334  1.00 47.14     0.017 A 
HETATM   14  CAA   D T1307       0.719  15.231  -1.159  1.00 46.26     0.002 A 
HETATM   15  CAB   D T1307       0.206  14.645  -0.013  1.00 47.22     0.000 A 
HETATM   16  CAC   D T1307       0.988  13.743   0.740  1.00 47.34     0.002 A 
BRANCH  10  17
HETATM   17  CAY   D T1307       4.856  14.051  -2.170  1.00 47.35     0.108 C 
BRANCH  17  18
HETATM   18  CBA   D T1307       6.357  13.794  -2.072  1.00 49.36     0.048 C 
BRANCH  18  19
HETATM   19  CBB   D T1307       7.031  14.311  -3.357  1.00 49.76     0.099 C 
BRANCH  19  20
HETATM   20  NBC   D T1307       8.454  14.654  -3.170  1.00 50.82    -0.365 N 
HETATM   21  CBD   D T1307       9.123  15.262  -4.302  1.00 49.65     0.121 C 
HETATM   22  CBE   D T1307       9.215  14.399  -1.934  1.00 51.10     0.121 C 
ENDBRANCH  19  20
ENDBRANCH  18  19
ENDBRANCH  17  18
ENDBRANCH  10  17
ENDBRANCH   1   8
BRANCH   7  23
HETATM   23  CAK   D T1307       5.767  11.413   2.789  1.00 42.28     0.025 A 
HETATM   24  CAM   D T1307       6.292  12.614   2.310  1.00 43.03     0.019 A 
HETATM   25  CAP   D T1307       5.715  13.869   1.935  1.00 40.17     0.002 A 
HETATM   26  CAN   D T1307       7.666  12.343   2.261  1.00 41.89     0.081 A 
HETATM   27  CAQ   D T1307       6.542  14.906   1.513  1.00 40.87     0.000 A 
HETATM   28  CAR   D T1307       7.929  14.673   1.481  1.00 41.97     0.002 A 
HETATM   29  CAS   D T1307       8.490  13.413   1.843  1.00 41.64     0.019 A 
HETATM   30  NAO   D T1307       7.879  11.037   2.678  1.00 41.75    -0.244 NA
HETATM   31  CAL   D T1307       6.712  10.421   3.008  1.00 40.82     0.099 A 
ENDBRANCH   7  23
TORSDOF 6
