REMARK  2 active torsions:
REMARK  status: ('A' for Active; 'I' for Inactive)
REMARK    1  A    between atoms: C4_4  and  C7_7 
REMARK    2  A    between atoms: C5_5  and  C15_15 
ROOT
HETATM    1  N1    D T1240      -1.059   1.587   4.999  1.00 25.62    -0.194 NA
HETATM    2  C2    D T1240      -0.970   1.880   6.347  1.00 23.58     0.239 A 
HETATM    3  C3    D T1240      -1.254   2.648   4.074  1.00 22.29     0.187 A 
HETATM    4  C4    D T1240      -1.382   4.067   4.508  1.00 21.48     0.051 A 
HETATM    5  C5    D T1240      -1.246   4.229   6.000  1.00 26.18     0.065 A 
HETATM    6  N6    D T1240      -1.048   3.174   6.852  1.00 28.81    -0.219 NA
HETATM    7  N13   D T1240      -1.334   2.385   2.770  1.00 22.31    -0.127 N 
HETATM    8  N14   D T1240      -0.801   0.832   7.261  1.00 25.45    -0.060 NA
ENDROOT
BRANCH   4   9
HETATM    9  C7    D T1240      -1.618   5.179   3.575  1.00 23.16     0.000 A 
HETATM   10  C8    D T1240      -0.618   5.574   2.572  1.00 23.74     0.000 A 
HETATM   11  C9    D T1240      -0.826   6.647   1.632  1.00 22.05     0.007 A 
HETATM   12  C10   D T1240      -2.016   7.359   1.655  1.00 28.58     0.040 A 
HETATM   13  C11   D T1240      -3.065   7.006   2.634  1.00 23.69     0.064 A 
HETATM   14 CL1    D T1240      -2.327   8.614   0.633  1.00  5.79    -0.087 Cl
HETATM   15  C12   D T1240      -2.836   5.927   3.563  1.00 23.56    -0.020 A 
ENDBRANCH   4   9
BRANCH   5  16
HETATM   16  C15   D T1240      -1.325   5.607   6.614  1.00 31.62     0.046 C 
HETATM   17  C16   D T1240      -0.009   6.160   7.143  1.00 31.37     0.007 C 
ENDBRANCH   5  16
TORSDOF 2
