REMARK  2 active torsions:
REMARK  status: ('A' for Active; 'I' for Inactive)
REMARK    1  A    between atoms: C4_4  and  C7_7 
REMARK    2  A    between atoms: C5_5  and  C15_15 
ROOT
HETATM    1  N1    D T1240     -16.772   2.165  12.951  1.00 25.62    -0.194 NA
HETATM    2  C2    D T1240     -16.458   1.497  11.782  1.00 23.58     0.239 A 
HETATM    3  C3    D T1240     -18.137   2.420  13.254  1.00 22.29     0.187 A 
HETATM    4  C4    D T1240     -19.244   2.008  12.347  1.00 21.48     0.051 A 
HETATM    5  C5    D T1240     -18.747   1.277  11.126  1.00 26.18     0.065 A 
HETATM    6  N6    D T1240     -17.419   1.045  10.883  1.00 28.81    -0.219 NA
HETATM    7  N13   D T1240     -18.458   3.056  14.381  1.00 22.31    -0.127 N 
HETATM    8  N14   D T1240     -15.112   1.265  11.471  1.00 25.45    -0.060 NA
ENDROOT
BRANCH   4   9
HETATM    9  C7    D T1240     -20.661   2.291  12.620  1.00 23.16     0.000 A 
HETATM   10  C8    D T1240     -21.365   1.684  13.759  1.00 23.74     0.000 A 
HETATM   11  C9    D T1240     -22.749   1.955  14.065  1.00 22.05     0.007 A 
HETATM   12  C10   D T1240     -23.472   2.822  13.260  1.00 28.58     0.040 A 
HETATM   13  C11   D T1240     -22.819   3.470  12.104  1.00 23.69     0.064 A 
HETATM   14 CL1    D T1240     -25.062   3.169  13.523  1.00  5.79    -0.087 Cl
HETATM   15  C12   D T1240     -21.434   3.188  11.819  1.00 23.56    -0.020 A 
ENDBRANCH   4   9
BRANCH   5  16
HETATM   16  C15   D T1240     -19.736   0.763  10.107  1.00 31.62     0.046 C 
HETATM   17  C16   D T1240     -19.911  -0.749  10.075  1.00 31.37     0.007 C 
ENDBRANCH   5  16
TORSDOF 2
