REMARK  2 active torsions:
REMARK  status: ('A' for Active; 'I' for Inactive)
REMARK    1  A    between atoms: C4_4  and  C7_7 
REMARK    2  A    between atoms: C5_5  and  C15_15 
ROOT
HETATM    1  N1    D T1240      -2.581   2.181   3.841  1.00 25.62    -0.194 NA
HETATM    2  C2    D T1240      -2.658   2.973   4.972  1.00 23.58     0.239 A 
HETATM    3  C3    D T1240      -3.349   2.534   2.699  1.00 22.29     0.187 A 
HETATM    4  C4    D T1240      -4.249   3.720   2.681  1.00 21.48     0.051 A 
HETATM    5  C5    D T1240      -4.212   4.492   3.975  1.00 26.18     0.065 A 
HETATM    6  N6    D T1240      -3.445   4.117   5.047  1.00 28.81    -0.219 NA
HETATM    7  N13   D T1240      -3.281   1.786   1.598  1.00 22.31    -0.127 N 
HETATM    8  N14   D T1240      -1.919   2.613   6.106  1.00 25.45    -0.060 NA
ENDROOT
BRANCH   4   9
HETATM    9  C7    D T1240      -5.079   4.087   1.524  1.00 23.16     0.000 A 
HETATM   10  C8    D T1240      -4.485   4.515   0.249  1.00 23.74     0.000 A 
HETATM   11  C9    D T1240      -5.272   4.865  -0.909  1.00 22.05     0.007 A 
HETATM   12  C10   D T1240      -6.655   4.804  -0.842  1.00 28.58     0.040 A 
HETATM   13  C11   D T1240      -7.313   4.374   0.409  1.00 23.69     0.064 A 
HETATM   14 CL1    D T1240      -7.629   5.208  -2.109  1.00  5.79    -0.087 Cl
HETATM   15  C12   D T1240      -6.508   4.027   1.553  1.00 23.56    -0.020 A 
ENDBRANCH   4   9
BRANCH   5  16
HETATM   16  C15   D T1240      -5.047   5.742   4.125  1.00 31.62     0.046 C 
HETATM   17  C16   D T1240      -4.264   7.048   4.141  1.00 31.37     0.007 C 
ENDBRANCH   5  16
TORSDOF 2
