REMARK  2 active torsions:
REMARK  status: ('A' for Active; 'I' for Inactive)
REMARK    1  A    between atoms: C4_4  and  C7_7 
REMARK    2  A    between atoms: C5_5  and  C15_15 
ROOT
HETATM    1  N1    D T1240      -0.421   0.446   5.558  1.00 25.62    -0.194 NA
HETATM    2  C2    D T1240      -0.277   0.674   6.913  1.00 23.58     0.239 A 
HETATM    3  C3    D T1240      -0.691   1.545   4.698  1.00 22.29     0.187 A 
HETATM    4  C4    D T1240      -0.843   2.936   5.210  1.00 21.48     0.051 A 
HETATM    5  C5    D T1240      -0.642   3.027   6.701  1.00 26.18     0.065 A 
HETATM    6  N6    D T1240      -0.372   1.938   7.487  1.00 28.81    -0.219 NA
HETATM    7  N13   D T1240      -0.823   1.345   3.388  1.00 22.31    -0.127 N 
HETATM    8  N14   D T1240      -0.034  -0.412   7.765  1.00 25.45    -0.060 NA
ENDROOT
BRANCH   4   9
HETATM    9  C7    D T1240      -1.156   4.084   4.347  1.00 23.16     0.000 A 
HETATM   10  C8    D T1240      -0.217   4.561   3.321  1.00 23.74     0.000 A 
HETATM   11  C9    D T1240      -0.502   5.673   2.448  1.00 22.05     0.007 A 
HETATM   12  C10   D T1240      -1.711   6.342   2.562  1.00 28.58     0.040 A 
HETATM   13  C11   D T1240      -2.701   5.907   3.568  1.00 23.69     0.064 A 
HETATM   14 CL1    D T1240      -2.108   7.636   1.620  1.00  5.79    -0.087 Cl
HETATM   15  C12   D T1240      -2.396   4.791   4.428  1.00 23.56    -0.020 A 
ENDBRANCH   4   9
BRANCH   5  16
HETATM   16  C15   D T1240      -0.735   4.369   7.388  1.00 31.62     0.046 C 
HETATM   17  C16   D T1240       0.586   4.938   7.884  1.00 31.37     0.007 C 
ENDBRANCH   5  16
TORSDOF 2
