REMARK  2 active torsions:
REMARK  status: ('A' for Active; 'I' for Inactive)
REMARK    1  A    between atoms: C4_4  and  C7_7 
REMARK    2  A    between atoms: C5_5  and  C15_15 
ROOT
HETATM    1  N1    D T1240      -2.508   2.146   3.964  1.00 25.62    -0.194 NA
HETATM    2  C2    D T1240      -2.555   2.892   5.126  1.00 23.58     0.239 A 
HETATM    3  C3    D T1240      -3.213   2.607   2.819  1.00 22.29     0.187 A 
HETATM    4  C4    D T1240      -4.019   3.859   2.833  1.00 21.48     0.051 A 
HETATM    5  C5    D T1240      -3.960   4.570   4.161  1.00 26.18     0.065 A 
HETATM    6  N6    D T1240      -3.255   4.090   5.234  1.00 28.81    -0.219 NA
HETATM    7  N13   D T1240      -3.171   1.905   1.687  1.00 22.31    -0.127 N 
HETATM    8  N14   D T1240      -1.879   2.427   6.262  1.00 25.45    -0.060 NA
ENDROOT
BRANCH   4   9
HETATM    9  C7    D T1240      -4.786   4.339   1.674  1.00 23.16     0.000 A 
HETATM   10  C8    D T1240      -4.125   4.776   0.435  1.00 23.74     0.000 A 
HETATM   11  C9    D T1240      -4.849   5.235  -0.725  1.00 22.05     0.007 A 
HETATM   12  C10   D T1240      -6.235   5.279  -0.695  1.00 28.58     0.040 A 
HETATM   13  C11   D T1240      -6.959   4.847   0.518  1.00 23.69     0.064 A 
HETATM   14 CL1    D T1240      -7.139   5.812  -1.967  1.00  5.79    -0.087 Cl
HETATM   15  C12   D T1240      -6.215   4.389   1.665  1.00 23.56    -0.020 A 
ENDBRANCH   4   9
BRANCH   5  16
HETATM   16  C15   D T1240      -4.700   5.873   4.348  1.00 31.62     0.046 C 
HETATM   17  C16   D T1240      -3.821   7.112   4.442  1.00 31.37     0.007 C 
ENDBRANCH   5  16
TORSDOF 2
