REMARK  2 active torsions:
REMARK  status: ('A' for Active; 'I' for Inactive)
REMARK    1  A    between atoms: C4_4  and  C7_7 
REMARK    2  A    between atoms: C5_5  and  C15_15 
ROOT
HETATM    1  N1    D T1240     -16.897   1.621  13.598  1.00 25.62    -0.194 NA
HETATM    2  C2    D T1240     -16.555   0.944  12.442  1.00 23.58     0.239 A 
HETATM    3  C3    D T1240     -18.269   1.870  13.871  1.00 22.29     0.187 A 
HETATM    4  C4    D T1240     -19.355   1.440  12.945  1.00 21.48     0.051 A 
HETATM    5  C5    D T1240     -18.829   0.700  11.743  1.00 26.18     0.065 A 
HETATM    6  N6    D T1240     -17.494   0.476  11.528  1.00 28.81    -0.219 NA
HETATM    7  N13   D T1240     -18.618   2.514  14.984  1.00 22.31    -0.127 N 
HETATM    8  N14   D T1240     -15.201   0.719  12.161  1.00 25.45    -0.060 NA
ENDROOT
BRANCH   4   9
HETATM    9  C7    D T1240     -20.779   1.715  13.188  1.00 23.16     0.000 A 
HETATM   10  C8    D T1240     -21.502   1.115  14.319  1.00 23.74     0.000 A 
HETATM   11  C9    D T1240     -22.893   1.378  14.593  1.00 22.05     0.007 A 
HETATM   12  C10   D T1240     -23.606   2.232  13.766  1.00 28.58     0.040 A 
HETATM   13  C11   D T1240     -22.935   2.874  12.617  1.00 23.69     0.064 A 
HETATM   14 CL1    D T1240     -25.204   2.570  13.994  1.00  5.79    -0.087 Cl
HETATM   15  C12   D T1240     -21.543   2.598  12.363  1.00 23.56    -0.020 A 
ENDBRANCH   4   9
BRANCH   5  16
HETATM   16  C15   D T1240     -19.794   0.169  10.709  1.00 31.62     0.046 C 
HETATM   17  C16   D T1240     -19.956  -1.344  10.689  1.00 31.37     0.007 C 
ENDBRANCH   5  16
TORSDOF 2
