REMARK  2 active torsions:
REMARK  status: ('A' for Active; 'I' for Inactive)
REMARK    1  A    between atoms: C4_4  and  C7_7 
REMARK    2  A    between atoms: C5_5  and  C15_15 
ROOT
HETATM    1  N1    D T1240      -2.769   1.970   3.681  1.00 25.62    -0.194 NA
HETATM    2  C2    D T1240      -2.920   2.858   4.729  1.00 23.58     0.239 A 
HETATM    3  C3    D T1240      -3.626   2.082   2.553  1.00 22.29     0.187 A 
HETATM    4  C4    D T1240      -4.696   3.115   2.467  1.00 21.48     0.051 A 
HETATM    5  C5    D T1240      -4.725   4.018   3.674  1.00 26.18     0.065 A 
HETATM    6  N6    D T1240      -3.868   3.876   4.734  1.00 28.81    -0.219 NA
HETATM    7  N13   D T1240      -3.489   1.240   1.530  1.00 22.31    -0.127 N 
HETATM    8  N14   D T1240      -2.091   2.734   5.852  1.00 25.45    -0.060 NA
ENDROOT
BRANCH   4   9
HETATM    9  C7    D T1240      -5.618   3.230   1.327  1.00 23.16     0.000 A 
HETATM   10  C8    D T1240      -5.147   3.603  -0.015  1.00 23.74     0.000 A 
HETATM   11  C9    D T1240      -6.022   3.708  -1.156  1.00 22.05     0.007 A 
HETATM   12  C10   D T1240      -7.377   3.453  -1.007  1.00 28.58     0.040 A 
HETATM   13  C11   D T1240      -7.912   3.066   0.314  1.00 23.69     0.064 A 
HETATM   14 CL1    D T1240      -8.451   3.571  -2.253  1.00  5.79    -0.087 Cl
HETATM   15  C12   D T1240      -7.018   2.965   1.441  1.00 23.56    -0.020 A 
ENDBRANCH   4   9
BRANCH   5  16
HETATM   16  C15   D T1240      -5.733   5.141   3.745  1.00 31.62     0.046 C 
HETATM   17  C16   D T1240      -5.157   6.541   3.587  1.00 31.37     0.007 C 
ENDBRANCH   5  16
TORSDOF 2
