REMARK  2 active torsions:
REMARK  status: ('A' for Active; 'I' for Inactive)
REMARK    1  A    between atoms: C4_4  and  C7_7 
REMARK    2  A    between atoms: C5_5  and  C15_15 
ROOT
HETATM    1  N1    D T 302     -16.846   2.573  12.758  1.00 23.04    -0.194 NA
HETATM    2  C2    D T 302     -16.617   1.925  11.515  1.00 19.75     0.239 A 
HETATM    3  C3    D T 302     -18.160   2.775  13.195  1.00 20.04     0.187 A 
HETATM    4  C4    D T 302     -19.344   2.325  12.362  1.00 18.39     0.051 A 
HETATM    5  C5    D T 302     -18.953   1.634  11.053  1.00 33.99     0.065 A 
HETATM    6  N6    D T 302     -17.652   1.463  10.673  1.00 32.76    -0.219 NA
HETATM    7  N13   D T 302     -18.411   3.384  14.374  1.00 22.47    -0.127 N 
HETATM    8  N14   D T 302     -15.309   1.723  11.064  1.00 19.91    -0.060 NA
ENDROOT
BRANCH   4   9
HETATM    9  C7    D T 302     -20.735   2.506  12.776  1.00 36.09     0.000 A 
HETATM   10  C8    D T 302     -21.448   1.393  13.472  1.00 33.93     0.000 A 
HETATM   11  C9    D T 302     -22.816   1.502  13.913  1.00 52.13     0.007 A 
HETATM   12  C10   D T 302     -23.521   2.701  13.685  1.00 28.66     0.040 A 
HETATM   13  C11   D T 302     -22.854   3.816  13.006  1.00 35.34     0.064 A 
HETATM   14 CL1    D T 302     -25.076   2.953  14.130  1.00 15.88    -0.087 Cl
HETATM   15  C12   D T 302     -21.484   3.696  12.568  1.00 17.91    -0.020 A 
ENDBRANCH   4   9
BRANCH   5  16
HETATM   16  C15   D T 302     -20.024   1.114  10.126  1.00 42.82     0.046 C 
HETATM   17  C16   D T 302     -20.059  -0.369   9.835  1.00 44.85     0.007 C 
ENDBRANCH   5  16
TORSDOF 2
