REMARK  2 active torsions:
REMARK  status: ('A' for Active; 'I' for Inactive)
REMARK    1  A    between atoms: C4_4  and  C7_7 
REMARK    2  A    between atoms: C5_5  and  C15_15 
ROOT
HETATM    1  N1    D T 302      -2.692   2.209   3.867  1.00 23.04    -0.194 NA
HETATM    2  C2    D T 302      -2.797   3.006   5.037  1.00 19.75     0.239 A 
HETATM    3  C3    D T 302      -3.243   2.673   2.667  1.00 20.04     0.187 A 
HETATM    4  C4    D T 302      -3.960   4.007   2.596  1.00 18.39     0.051 A 
HETATM    5  C5    D T 302      -3.991   4.765   3.925  1.00 33.99     0.065 A 
HETATM    6  N6    D T 302      -3.437   4.264   5.069  1.00 32.76    -0.219 NA
HETATM    7  N13   D T 302      -3.156   1.940   1.536  1.00 22.47    -0.127 N 
HETATM    8  N14   D T 302      -2.256   2.551   6.244  1.00 19.91    -0.060 NA
ENDROOT
BRANCH   4   9
HETATM    9  C7    D T 302      -4.546   4.540   1.367  1.00 36.09     0.000 A 
HETATM   10  C8    D T 302      -3.759   5.492   0.527  1.00 33.93     0.000 A 
HETATM   11  C9    D T 302      -4.271   6.053  -0.699  1.00 52.13     0.007 A 
HETATM   12  C10   D T 302      -5.564   5.699  -1.133  1.00 28.66     0.040 A 
HETATM   13  C11   D T 302      -6.366   4.767  -0.335  1.00 35.34     0.064 A 
HETATM   14 CL1    D T 302      -6.264   6.266  -2.499  1.00 15.88    -0.087 Cl
HETATM   15  C12   D T 302      -5.845   4.211   0.890  1.00 17.91    -0.020 A 
ENDBRANCH   4   9
BRANCH   5  16
HETATM   16  C15   D T 302      -4.654   6.118   4.006  1.00 42.82     0.046 C 
HETATM   17  C16   D T 302      -3.806   7.307   4.395  1.00 44.85     0.007 C 
ENDBRANCH   5  16
TORSDOF 2
