REMARK  2 active torsions:
REMARK  status: ('A' for Active; 'I' for Inactive)
REMARK    1  A    between atoms: C4_4  and  C7_7 
REMARK    2  A    between atoms: C5_5  and  C15_15 
ROOT
HETATM    1  N1    D T 302      -1.178   1.770   4.922  1.00 23.04    -0.194 NA
HETATM    2  C2    D T 302      -1.116   2.134   6.293  1.00 19.75     0.239 A 
HETATM    3  C3    D T 302      -1.226   2.772   3.947  1.00 20.04     0.187 A 
HETATM    4  C4    D T 302      -1.224   4.240   4.327  1.00 18.39     0.051 A 
HETATM    5  C5    D T 302      -1.145   4.488   5.835  1.00 33.99     0.065 A 
HETATM    6  N6    D T 302      -1.100   3.470   6.746  1.00 32.76    -0.219 NA
HETATM    7  N13   D T 302      -1.281   2.459   2.634  1.00 22.47    -0.127 N 
HETATM    8  N14   D T 302      -1.073   1.141   7.277  1.00 19.91    -0.060 NA
ENDROOT
BRANCH   4   9
HETATM    9  C7    D T 302      -1.267   5.325   3.347  1.00 36.09     0.000 A 
HETATM   10  C8    D T 302       0.007   5.962   2.897  1.00 33.93     0.000 A 
HETATM   11  C9    D T 302       0.042   7.032   1.932  1.00 52.13     0.007 A 
HETATM   12  C10   D T 302      -1.166   7.506   1.383  1.00 28.66     0.040 A 
HETATM   13  C11   D T 302      -2.437   6.905   1.800  1.00 35.34     0.064 A 
HETATM   14 CL1    D T 302      -1.266   8.715   0.285  1.00 15.88    -0.087 Cl
HETATM   15  C12   D T 302      -2.461   5.835   2.767  1.00 17.91    -0.020 A 
ENDBRANCH   4   9
BRANCH   5  16
HETATM   16  C15   D T 302      -1.115   5.900   6.366  1.00 42.82     0.046 C 
HETATM   17  C16   D T 302       0.097   6.343   7.152  1.00 44.85     0.007 C 
ENDBRANCH   5  16
TORSDOF 2
