REMARK  2 active torsions:
REMARK  status: ('A' for Active; 'I' for Inactive)
REMARK    1  A    between atoms: C4_4  and  C7_7 
REMARK    2  A    between atoms: C5_5  and  C15_15 
ROOT
HETATM    1  N1    D T 302     -16.703   1.995  13.192  1.00 23.04    -0.194 NA
HETATM    2  C2    D T 302     -16.451   1.338  11.958  1.00 19.75     0.239 A 
HETATM    3  C3    D T 302     -18.023   2.171  13.619  1.00 20.04     0.187 A 
HETATM    4  C4    D T 302     -19.191   1.684  12.785  1.00 18.39     0.051 A 
HETATM    5  C5    D T 302     -18.776   0.987  11.487  1.00 33.99     0.065 A 
HETATM    6  N6    D T 302     -17.469   0.842  11.116  1.00 32.76    -0.219 NA
HETATM    7  N13   D T 302     -18.296   2.787  14.790  1.00 22.47    -0.127 N 
HETATM    8  N14   D T 302     -15.136   1.162  11.517  1.00 19.91    -0.060 NA
ENDROOT
BRANCH   4   9
HETATM    9  C7    D T 302     -20.588   1.837  13.189  1.00 36.09     0.000 A 
HETATM   10  C8    D T 302     -21.279   0.716  13.894  1.00 33.93     0.000 A 
HETATM   11  C9    D T 302     -22.653   0.798  14.325  1.00 52.13     0.007 A 
HETATM   12  C10   D T 302     -23.384   1.977  14.080  1.00 28.66     0.040 A 
HETATM   13  C11   D T 302     -22.739   3.099  13.392  1.00 35.34     0.064 A 
HETATM   14 CL1    D T 302     -24.946   2.198  14.513  1.00 15.88    -0.087 Cl
HETATM   15  C12   D T 302     -21.364   3.007  12.963  1.00 17.91    -0.020 A 
ENDBRANCH   4   9
BRANCH   5  16
HETATM   16  C15   D T 302     -19.829   0.432  10.560  1.00 42.82     0.046 C 
HETATM   17  C16   D T 302     -19.828  -1.054  10.285  1.00 44.85     0.007 C 
ENDBRANCH   5  16
TORSDOF 2
