REMARK  2 active torsions:
REMARK  status: ('A' for Active; 'I' for Inactive)
REMARK    1  A    between atoms: C4_4  and  C7_7 
REMARK    2  A    between atoms: C5_5  and  C15_15 
ROOT
HETATM    1  N1    D T 302     -16.971   2.245  12.910  1.00 23.04    -0.194 NA
HETATM    2  C2    D T 302     -16.713   1.574  11.685  1.00 19.75     0.239 A 
HETATM    3  C3    D T 302     -18.292   2.404  13.341  1.00 20.04     0.187 A 
HETATM    4  C4    D T 302     -19.455   1.884  12.519  1.00 18.39     0.051 A 
HETATM    5  C5    D T 302     -19.034   1.175  11.230  1.00 33.99     0.065 A 
HETATM    6  N6    D T 302     -17.726   1.047  10.856  1.00 32.76    -0.219 NA
HETATM    7  N13   D T 302     -18.570   3.033  14.503  1.00 22.47    -0.127 N 
HETATM    8  N14   D T 302     -15.397   1.414  11.240  1.00 19.91    -0.060 NA
ENDROOT
BRANCH   4   9
HETATM    9  C7    D T 302     -20.853   2.019  12.928  1.00 36.09     0.000 A 
HETATM   10  C8    D T 302     -21.521   0.896  13.652  1.00 33.93     0.000 A 
HETATM   11  C9    D T 302     -22.894   0.961  14.089  1.00 52.13     0.007 A 
HETATM   12  C10   D T 302     -23.647   2.123  13.830  1.00 28.66     0.040 A 
HETATM   13  C11   D T 302     -23.025   3.246  13.122  1.00 35.34     0.064 A 
HETATM   14 CL1    D T 302     -25.211   2.323  14.266  1.00 15.88    -0.087 Cl
HETATM   15  C12   D T 302     -21.651   3.171  12.688  1.00 17.91    -0.020 A 
ENDBRANCH   4   9
BRANCH   5  16
HETATM   16  C15   D T 302     -20.081   0.587  10.317  1.00 42.82     0.046 C 
HETATM   17  C16   D T 302     -20.055  -0.903  10.064  1.00 44.85     0.007 C 
ENDBRANCH   5  16
TORSDOF 2
