REMARK  2 active torsions:
REMARK  status: ('A' for Active; 'I' for Inactive)
REMARK    1  A    between atoms: C4_4  and  C7_7 
REMARK    2  A    between atoms: C5_5  and  C15_15 
ROOT
HETATM    1  N1    D T 302      -2.968   1.974   3.595  1.00 23.04    -0.194 NA
HETATM    2  C2    D T 302      -3.186   2.902   4.648  1.00 19.75     0.239 A 
HETATM    3  C3    D T 302      -3.679   2.115   2.398  1.00 20.04     0.187 A 
HETATM    4  C4    D T 302      -4.685   3.233   2.208  1.00 18.39     0.051 A 
HETATM    5  C5    D T 302      -4.813   4.163   3.417  1.00 33.99     0.065 A 
HETATM    6  N6    D T 302      -4.094   3.979   4.564  1.00 32.76    -0.219 NA
HETATM    7  N13   D T 302      -3.491   1.253   1.375  1.00 22.47    -0.127 N 
HETATM    8  N14   D T 302      -2.487   2.768   5.852  1.00 19.91    -0.060 NA
ENDROOT
BRANCH   4   9
HETATM    9  C7    D T 302      -5.448   3.428   0.976  1.00 36.09     0.000 A 
HETATM   10  C8    D T 302      -4.950   4.387  -0.056  1.00 33.93     0.000 A 
HETATM   11  C9    D T 302      -5.647   4.626  -1.295  1.00 52.13     0.007 A 
HETATM   12  C10   D T 302      -6.846   3.935  -1.558  1.00 28.66     0.040 A 
HETATM   13  C11   D T 302      -7.366   2.985  -0.569  1.00 35.34     0.064 A 
HETATM   14 CL1    D T 302      -7.735   4.117  -2.920  1.00 15.88    -0.087 Cl
HETATM   15  C12   D T 302      -6.662   2.753   0.669  1.00 17.91    -0.020 A 
ENDBRANCH   4   9
BRANCH   5  16
HETATM   16  C15   D T 302      -5.763   5.334   3.370  1.00 42.82     0.046 C 
HETATM   17  C16   D T 302      -5.190   6.725   3.512  1.00 44.85     0.007 C 
ENDBRANCH   5  16
TORSDOF 2
