REMARK  2 active torsions:
REMARK  status: ('A' for Active; 'I' for Inactive)
REMARK    1  A    between atoms: C4_4  and  C7_7 
REMARK    2  A    between atoms: C5_5  and  C15_15 
ROOT
HETATM    1  N1    D T 302      -2.772   2.224   3.748  1.00 23.04    -0.194 NA
HETATM    2  C2    D T 302      -2.910   3.064   4.884  1.00 19.75     0.239 A 
HETATM    3  C3    D T 302      -3.387   2.590   2.545  1.00 20.04     0.187 A 
HETATM    4  C4    D T 302      -4.207   3.860   2.436  1.00 18.39     0.051 A 
HETATM    5  C5    D T 302      -4.264   4.673   3.731  1.00 33.99     0.065 A 
HETATM    6  N6    D T 302      -3.644   4.269   4.880  1.00 32.76    -0.219 NA
HETATM    7  N13   D T 302      -3.272   1.815   1.445  1.00 22.47    -0.127 N 
HETATM    8  N14   D T 302      -2.305   2.707   6.094  1.00 19.91    -0.060 NA
ENDROOT
BRANCH   4   9
HETATM    9  C7    D T 302      -4.864   4.291   1.202  1.00 36.09     0.000 A 
HETATM   10  C8    D T 302      -4.174   5.260   0.299  1.00 33.93     0.000 A 
HETATM   11  C9    D T 302      -4.758   5.725  -0.934  1.00 52.13     0.007 A 
HETATM   12  C10   D T 302      -6.030   5.253  -1.317  1.00 28.66     0.040 A 
HETATM   13  C11   D T 302      -6.737   4.300  -0.456  1.00 35.34     0.064 A 
HETATM   14 CL1    D T 302      -6.805   5.702  -2.685  1.00 15.88    -0.087 Cl
HETATM   15  C12   D T 302      -6.144   3.842   0.777  1.00 17.91    -0.020 A 
ENDBRANCH   4   9
BRANCH   5  16
HETATM   16  C15   D T 302      -5.027   5.974   3.772  1.00 42.82     0.046 C 
HETATM   17  C16   D T 302      -4.266   7.241   4.084  1.00 44.85     0.007 C 
ENDBRANCH   5  16
TORSDOF 2
