REMARK  8 active torsions:
REMARK  status: ('A' for Active; 'I' for Inactive)
REMARK    1  A    between atoms: C1_1  and  C41_41 
REMARK    2  A    between atoms: C4_4  and  C11_11 
REMARK    3  A    between atoms: C5_5  and  C7_7 
REMARK    4  A    between atoms: C11_11  and  N12_12 
REMARK    5  A    between atoms: C15_15  and  N17_17 
REMARK    6  A    between atoms: C28_28  and  N32_32 
REMARK    7  A    between atoms: N32_32  and  C38_38 
REMARK    8  A    between atoms: C34_34  and  N40_40 
REMARK       I    between atoms: N40_40  and  C41_41 
ROOT
HETATM    1  N40   D T1001      -4.425   6.785   3.074  1.00 37.15    -0.208 NA
HETATM    2  C41   D T1001      -3.920   5.978   2.142  1.00 37.79     0.279 C 
HETATM    3  O42   D T1001      -2.897   5.327   2.359  1.00 38.78    -0.265 OA
ENDROOT
BRANCH   1   4
HETATM    4  C34   D T1001      -4.159   6.941   4.480  1.00 37.97     0.086 A 
HETATM    5  C33   D T1001      -3.181   6.151   5.202  1.00 37.70     0.039 A 
HETATM    6  C38   D T1001      -2.979   6.368   6.576  1.00 38.49     0.097 A 
HETATM    7  C37   D T1001      -3.718   7.356   7.280  1.00 38.20    -0.004 A 
HETATM    8  C36   D T1001      -4.685   8.140   6.576  1.00 37.87    -0.001 A 
HETATM    9  C39   D T1001      -3.564   7.664   8.768  1.00 38.08     0.033 C 
HETATM   10  C35   D T1001      -4.900   7.927   5.173  1.00 37.80     0.019 A 
BRANCH   6  11
HETATM   11  N32   D T1001      -2.018   5.586   7.221  1.00 38.25    -0.060 NA
BRANCH  11  12
HETATM   12  C28   D T1001      -0.673   5.869   7.418  1.00 38.40     0.750 A 
HETATM   13  N27   D T1001       0.003   4.948   8.086  1.00 38.34    -0.063 NA
HETATM   14  C26   D T1001       1.344   5.116   8.346  1.00 38.69     0.086 A 
HETATM   15  C24   D T1001       2.023   4.119   9.057  1.00 38.59     0.053 A 
HETATM   16  C31   D T1001       2.003   6.356   7.871  1.00 38.28     0.094 A 
HETATM   17  C23   D T1001       1.348   2.892   9.542  1.00 37.81     0.103 A 
HETATM   18  C25   D T1001       3.446   4.123   9.422  1.00 38.35     0.103 A 
HETATM   19  N22   D T1001       1.983   1.909  10.234  1.00 38.06    -0.223 NA
HETATM   20  C21   D T1001       3.290   2.075  10.479  1.00 38.54     0.199 A 
HETATM   21  N20   D T1001       4.045   3.124  10.108  1.00 38.22    -0.223 NA
HETATM   22  C30   D T1001       1.167   7.268   7.172  1.00 38.37     0.098 A 
HETATM   23  N29   D T1001      -0.169   7.008   6.963  1.00 38.67    -0.062 NA
ENDBRANCH  11  12
ENDBRANCH   6  11
ENDBRANCH   1   4
BRANCH   2  24
HETATM   24  C1    D T1001      -4.567   5.862   0.800  1.00 38.65     0.058 A 
HETATM   25  C2    D T1001      -5.397   6.858   0.193  1.00 37.93     0.004 A 
HETATM   26  C3    D T1001      -5.953   6.647  -1.087  1.00 37.95    -0.002 A 
HETATM   27  C4    D T1001      -5.693   5.419  -1.830  1.00 38.26     0.015 A 
HETATM   28  C5    D T1001      -4.833   4.384  -1.210  1.00 37.89     0.070 A 
HETATM   29  C6    D T1001      -4.309   4.651   0.079  1.00 37.86     0.008 A 
BRANCH  27  30
HETATM   30  C11   D T1001      -6.362   5.317  -3.236  1.00 37.72     0.277 C 
BRANCH  30  31
HETATM   31  N12   D T1001      -6.589   6.555  -4.030  1.00 39.41     0.143 N 
HETATM   32  C13   D T1001      -7.442   6.407  -5.226  1.00 38.92     0.253 C 
HETATM   33  C14   D T1001      -6.636   7.042  -6.365  1.00 38.65     0.071 C 
HETATM   34  C15   D T1001      -5.821   8.098  -5.579  1.00 38.81     0.255 C 
HETATM   35  C16   D T1001      -5.330   7.223  -4.454  1.00 38.57     0.284 C 
BRANCH  34  36
HETATM   36  N17   D T1001      -4.710   8.815  -6.350  1.00 39.14     0.141 N 
HETATM   37  C18   D T1001      -5.142   9.665  -7.480  1.00 39.06     0.285 C 
HETATM   38  C19   D T1001      -3.842   9.593  -5.392  1.00 38.52     0.285 C 
ENDBRANCH  34  36
ENDBRANCH  30  31
ENDBRANCH  27  30
BRANCH  28  39
HETATM   39  C7    D T1001      -4.446   3.010  -1.868  1.00 38.38     0.418 C 
HETATM   40  F8    D T1001      -3.701   3.239  -2.985  1.00 39.18    -0.166 F 
HETATM   41  F9    D T1001      -5.556   2.311  -2.215  1.00 37.72    -0.166 F 
HETATM   42  F10   D T1001      -3.652   2.239  -1.056  1.00 39.32    -0.166 F 
ENDBRANCH  28  39
ENDBRANCH   2  24
TORSDOF 8
