REMARK  8 active torsions:
REMARK  status: ('A' for Active; 'I' for Inactive)
REMARK    1  A    between atoms: C1_1  and  C41_41 
REMARK    2  A    between atoms: C4_4  and  C11_11 
REMARK    3  A    between atoms: C5_5  and  C7_7 
REMARK    4  A    between atoms: C11_11  and  N12_12 
REMARK    5  A    between atoms: C15_15  and  N17_17 
REMARK    6  A    between atoms: C28_28  and  N32_32 
REMARK    7  A    between atoms: N32_32  and  C38_38 
REMARK    8  A    between atoms: C34_34  and  N40_40 
REMARK       I    between atoms: N40_40  and  C41_41 
ROOT
HETATM    1  N40   D T1001       5.933  -4.780  -5.808  1.00 37.15    -0.208 NA
HETATM    2  C41   D T1001       4.973  -4.590  -4.903  1.00 37.79     0.279 C 
HETATM    3  O42   D T1001       4.422  -3.494  -4.790  1.00 38.78    -0.265 OA
ENDROOT
BRANCH   1   4
HETATM    4  C34   D T1001       6.382  -4.003  -6.933  1.00 37.97     0.086 A 
HETATM    5  C33   D T1001       5.796  -2.734  -7.315  1.00 37.70     0.039 A 
HETATM    6  C38   D T1001       6.296  -2.035  -8.427  1.00 38.49     0.097 A 
HETATM    7  C37   D T1001       7.376  -2.550  -9.193  1.00 38.20    -0.004 A 
HETATM    8  C36   D T1001       7.961  -3.802  -8.823  1.00 37.87    -0.001 A 
HETATM    9  C39   D T1001       7.987  -1.861 -10.412  1.00 38.08     0.033 C 
HETATM   10  C35   D T1001       7.458  -4.524  -7.690  1.00 37.80     0.019 A 
BRANCH   6  11
HETATM   11  N32   D T1001       5.701  -0.812  -8.745  1.00 38.25    -0.060 NA
BRANCH  11  12
HETATM   12  C28   D T1001       6.072   0.458  -8.324  1.00 38.40     0.750 A 
HETATM   13  N27   D T1001       5.334   1.447  -8.803  1.00 38.34    -0.063 NA
HETATM   14  C26   D T1001       5.605   2.752  -8.458  1.00 38.69     0.086 A 
HETATM   15  C24   D T1001       4.802   3.769  -8.988  1.00 38.59     0.053 A 
HETATM   16  C31   D T1001       6.748   3.017  -7.552  1.00 38.28     0.094 A 
HETATM   17  C23   D T1001       3.674   3.491  -9.907  1.00 37.81     0.103 A 
HETATM   18  C25   D T1001       4.937   5.210  -8.732  1.00 38.35     0.103 A 
HETATM   19  N22   D T1001       2.878   4.459 -10.435  1.00 38.06    -0.223 NA
HETATM   20  C21   D T1001       3.143   5.727 -10.092  1.00 38.54     0.199 A 
HETATM   21  N20   D T1001       4.124   6.145  -9.273  1.00 38.22    -0.223 NA
HETATM   22  C30   D T1001       7.465   1.872  -7.113  1.00 38.37     0.098 A 
HETATM   23  N29   D T1001       7.113   0.603  -7.516  1.00 38.67    -0.062 NA
ENDBRANCH  11  12
ENDBRANCH   6  11
ENDBRANCH   1   4
BRANCH   2  24
HETATM   24  C1    D T1001       4.561  -5.694  -3.984  1.00 38.65     0.058 A 
HETATM   25  C2    D T1001       5.378  -6.808  -3.611  1.00 37.93     0.004 A 
HETATM   26  C3    D T1001       4.889  -7.793  -2.726  1.00 37.95    -0.002 A 
HETATM   27  C4    D T1001       3.546  -7.702  -2.162  1.00 38.26     0.015 A 
HETATM   28  C5    D T1001       2.695  -6.550  -2.542  1.00 37.89     0.070 A 
HETATM   29  C6    D T1001       3.240  -5.598  -3.438  1.00 37.86     0.008 A 
BRANCH  27  30
HETATM   30  C11   D T1001       3.134  -8.852  -1.192  1.00 37.72     0.277 C 
BRANCH  30  31
HETATM   31  N12   D T1001       4.173  -9.520  -0.363  1.00 39.41     0.143 N 
HETATM   32  C13   D T1001       3.751 -10.750   0.336  1.00 38.92     0.253 C 
HETATM   33  C14   D T1001       4.173 -10.539   1.794  1.00 38.65     0.071 C 
HETATM   34  C15   D T1001       5.398  -9.613   1.603  1.00 38.81     0.255 C 
HETATM   35  C16   D T1001       4.792  -8.618   0.646  1.00 38.57     0.284 C 
BRANCH  34  36
HETATM   36  N17   D T1001       5.987  -8.988   2.870  1.00 39.14     0.141 N 
HETATM   37  C18   D T1001       6.571  -9.928   3.850  1.00 39.06     0.285 C 
HETATM   38  C19   D T1001       6.978  -7.913   2.498  1.00 38.52     0.285 C 
ENDBRANCH  34  36
ENDBRANCH  30  31
ENDBRANCH  27  30
BRANCH  28  39
HETATM   39  C7    D T1001       1.232  -6.292  -2.027  1.00 38.38     0.418 C 
HETATM   40  F8    D T1001       1.258  -6.080  -0.682  1.00 39.18    -0.166 F 
HETATM   41  F9    D T1001       0.433  -7.358  -2.288  1.00 37.72    -0.166 F 
HETATM   42  F10   D T1001       0.676  -5.157  -2.561  1.00 39.32    -0.166 F 
ENDBRANCH  28  39
ENDBRANCH   2  24
TORSDOF 8
