REMARK  8 active torsions:
REMARK  status: ('A' for Active; 'I' for Inactive)
REMARK    1  A    between atoms: C1_1  and  C41_41 
REMARK    2  A    between atoms: C4_4  and  C11_11 
REMARK    3  A    between atoms: C5_5  and  C7_7 
REMARK    4  A    between atoms: C11_11  and  N12_12 
REMARK    5  A    between atoms: C15_15  and  N17_17 
REMARK    6  A    between atoms: C28_28  and  N32_32 
REMARK    7  A    between atoms: N32_32  and  C38_38 
REMARK    8  A    between atoms: C34_34  and  N40_40 
REMARK       I    between atoms: N40_40  and  C41_41 
ROOT
HETATM    1  N40   D T1001      -2.720  12.875  -1.682  1.00 37.15    -0.208 NA
HETATM    2  C41   D T1001      -2.432  11.938  -2.586  1.00 37.79     0.279 C 
HETATM    3  O42   D T1001      -1.382  11.297  -2.517  1.00 38.78    -0.265 OA
ENDROOT
BRANCH   1   4
HETATM    4  C34   D T1001      -2.146  13.210  -0.406  1.00 37.97     0.086 A 
HETATM    5  C33   D T1001      -1.027  12.499   0.180  1.00 37.70     0.039 A 
HETATM    6  C38   D T1001      -0.522  12.891   1.432  1.00 38.49     0.097 A 
HETATM    7  C37   D T1001      -1.091  13.982   2.143  1.00 38.20    -0.004 A 
HETATM    8  C36   D T1001      -2.195  14.689   1.572  1.00 37.87    -0.001 A 
HETATM    9  C39   D T1001      -0.608  14.481   3.503  1.00 38.08     0.033 C 
HETATM   10  C35   D T1001      -2.718  14.297   0.295  1.00 37.80     0.019 A 
BRANCH   6  11
HETATM   11  N32   D T1001       0.563  12.178   1.946  1.00 38.25    -0.060 NA
BRANCH  11  12
HETATM   12  C28   D T1001       1.916  12.452   1.798  1.00 38.40     0.750 A 
HETATM   13  N27   D T1001       2.730  11.611   2.417  1.00 38.34    -0.063 NA
HETATM   14  C26   D T1001       4.094  11.779   2.346  1.00 38.69     0.086 A 
HETATM   15  C24   D T1001       4.921  10.869   3.016  1.00 38.59     0.053 A 
HETATM   16  C31   D T1001       4.623  12.928   1.573  1.00 38.28     0.094 A 
HETATM   17  C23   D T1001       4.379   9.735   3.800  1.00 37.81     0.103 A 
HETATM   18  C25   D T1001       6.390  10.886   3.050  1.00 38.35     0.103 A 
HETATM   19  N22   D T1001       5.158   8.836   4.460  1.00 38.06    -0.223 NA
HETATM   20  C21   D T1001       6.486   9.001   4.383  1.00 38.54     0.199 A 
HETATM   21  N20   D T1001       7.133   9.973   3.715  1.00 38.22    -0.223 NA
HETATM   22  C30   D T1001       3.646  13.760   0.962  1.00 38.37     0.098 A 
HETATM   23  N29   D T1001       2.299  13.507   1.093  1.00 38.67    -0.062 NA
ENDBRANCH  11  12
ENDBRANCH   6  11
ENDBRANCH   1   4
BRANCH   2  24
HETATM   24  C1    D T1001      -3.362  11.661  -3.722  1.00 38.65     0.058 A 
HETATM   25  C2    D T1001      -4.313  12.587  -4.257  1.00 37.93     0.004 A 
HETATM   26  C3    D T1001      -5.140  12.222  -5.341  1.00 37.95    -0.002 A 
HETATM   27  C4    D T1001      -5.047  10.900  -5.950  1.00 38.26     0.015 A 
HETATM   28  C5    D T1001      -4.064   9.936  -5.403  1.00 37.89     0.070 A 
HETATM   29  C6    D T1001      -3.266  10.359  -4.311  1.00 37.86     0.008 A 
BRANCH  27  30
HETATM   30  C11   D T1001      -6.014  10.629  -7.144  1.00 37.72     0.277 C 
BRANCH  30  31
HETATM   31  N12   D T1001      -6.420  11.755  -8.028  1.00 39.41     0.143 N 
HETATM   32  C13   D T1001      -7.519  11.471  -8.972  1.00 38.92     0.253 C 
HETATM   33  C14   D T1001      -6.992  11.929 -10.337  1.00 38.65     0.071 C 
HETATM   34  C15   D T1001      -6.028  13.059  -9.903  1.00 38.81     0.255 C 
HETATM   35  C16   D T1001      -5.292  12.330  -8.808  1.00 38.57     0.284 C 
BRANCH  34  36
HETATM   36  N17   D T1001      -5.122  13.640 -10.992  1.00 39.14     0.141 N 
HETATM   37  C18   D T1001      -5.801  14.342 -12.101  1.00 39.06     0.285 C 
HETATM   38  C19   D T1001      -4.066  14.516 -10.365  1.00 38.52     0.285 C 
ENDBRANCH  34  36
ENDBRANCH  30  31
ENDBRANCH  27  30
BRANCH  28  39
HETATM   39  C7    D T1001      -3.826   8.477  -5.939  1.00 38.38     0.418 C 
HETATM   40  F8    D T1001      -3.353   8.537  -7.214  1.00 39.18    -0.166 F 
HETATM   41  F9    D T1001      -4.982   7.766  -5.932  1.00 37.72    -0.166 F 
HETATM   42  F10   D T1001      -2.866   7.802  -5.228  1.00 39.32    -0.166 F 
ENDBRANCH  28  39
ENDBRANCH   2  24
TORSDOF 8
