REMARK  8 active torsions:
REMARK  status: ('A' for Active; 'I' for Inactive)
REMARK    1  A    between atoms: C1_1  and  C41_41 
REMARK    2  A    between atoms: C4_4  and  C11_11 
REMARK    3  A    between atoms: C5_5  and  C7_7 
REMARK    4  A    between atoms: C11_11  and  N12_12 
REMARK    5  A    between atoms: C15_15  and  N17_17 
REMARK    6  A    between atoms: C28_28  and  N32_32 
REMARK    7  A    between atoms: N32_32  and  C38_38 
REMARK    8  A    between atoms: C34_34  and  N40_40 
REMARK       I    between atoms: N40_40  and  C41_41 
ROOT
HETATM    1  N40   D T1001       2.891  -3.980  -8.774  1.00 37.15    -0.208 NA
HETATM    2  C41   D T1001       2.087  -3.670  -7.756  1.00 37.79     0.279 C 
HETATM    3  O42   D T1001       2.365  -2.743  -6.994  1.00 38.78    -0.265 OA
ENDROOT
BRANCH   1   4
HETATM    4  C34   D T1001       4.005  -3.300  -9.381  1.00 37.97     0.086 A 
HETATM    5  C33   D T1001       4.496  -2.011  -8.935  1.00 37.70     0.039 A 
HETATM    6  C38   D T1001       5.592  -1.414  -9.580  1.00 38.49     0.097 A 
HETATM    7  C37   D T1001       6.238  -2.054 -10.672  1.00 38.20    -0.004 A 
HETATM    8  C36   D T1001       5.761  -3.326 -11.119  1.00 37.87    -0.001 A 
HETATM    9  C39   D T1001       7.436  -1.486 -11.431  1.00 38.08     0.033 C 
HETATM   10  C35   D T1001       4.641  -3.944 -10.467  1.00 37.80     0.019 A 
BRANCH   6  11
HETATM   11  N32   D T1001       6.030  -0.177  -9.104  1.00 38.25    -0.060 NA
BRANCH  11  12
HETATM   12  C28   D T1001       7.006   0.078  -8.149  1.00 38.40     0.750 A 
HETATM   13  N27   D T1001       7.232   1.359  -7.905  1.00 38.34    -0.063 NA
HETATM   14  C26   D T1001       8.177   1.738  -6.979  1.00 38.69     0.086 A 
HETATM   15  C24   D T1001       8.389   3.104  -6.752  1.00 38.59     0.053 A 
HETATM   16  C31   D T1001       8.939   0.678  -6.277  1.00 38.28     0.094 A 
HETATM   17  C23   D T1001       7.632   4.153  -7.474  1.00 37.81     0.103 A 
HETATM   18  C25   D T1001       9.345   3.693  -5.806  1.00 38.35     0.103 A 
HETATM   19  N22   D T1001       7.816   5.485  -7.272  1.00 38.06    -0.223 NA
HETATM   20  C21   D T1001       8.733   5.849  -6.366  1.00 38.54     0.199 A 
HETATM   21  N20   D T1001       9.499   5.024  -5.629  1.00 38.22    -0.223 NA
HETATM   22  C30   D T1001       8.607  -0.657  -6.632  1.00 38.37     0.098 A 
HETATM   23  N29   D T1001       7.642  -0.934  -7.575  1.00 38.67    -0.062 NA
ENDBRANCH  11  12
ENDBRANCH   6  11
ENDBRANCH   1   4
BRANCH   2  24
HETATM   24  C1    D T1001       0.844  -4.458  -7.499  1.00 38.65     0.058 A 
HETATM   25  C2    D T1001       0.621  -5.810  -7.909  1.00 37.93     0.004 A 
HETATM   26  C3    D T1001      -0.593  -6.463  -7.605  1.00 37.95    -0.002 A 
HETATM   27  C4    D T1001      -1.648  -5.786  -6.860  1.00 38.26     0.015 A 
HETATM   28  C5    D T1001      -1.425  -4.385  -6.429  1.00 37.89     0.070 A 
HETATM   29  C6    D T1001      -0.188  -3.783  -6.770  1.00 37.86     0.008 A 
BRANCH  27  30
HETATM   30  C11   D T1001      -2.935  -6.623  -6.585  1.00 37.72     0.277 C 
BRANCH  30  31
HETATM   31  N12   D T1001      -2.828  -8.098  -6.418  1.00 39.41     0.143 N 
HETATM   32  C13   D T1001      -4.103  -8.842  -6.409  1.00 38.92     0.253 C 
HETATM   33  C14   D T1001      -4.039  -9.718  -5.153  1.00 38.65     0.071 C 
HETATM   34  C15   D T1001      -2.510  -9.930  -5.034  1.00 38.81     0.255 C 
HETATM   35  C16   D T1001      -2.062  -8.501  -5.208  1.00 38.57     0.284 C 
BRANCH  34  36
HETATM   36  N17   D T1001      -2.011 -10.594  -3.748  1.00 39.14     0.141 N 
HETATM   37  C18   D T1001      -2.445 -11.988  -3.522  1.00 39.06     0.285 C 
HETATM   38  C19   D T1001      -0.509 -10.477  -3.662  1.00 38.52     0.285 C 
ENDBRANCH  34  36
ENDBRANCH  30  31
ENDBRANCH  27  30
BRANCH  28  39
HETATM   39  C7    D T1001      -2.447  -3.510  -5.617  1.00 38.38     0.418 C 
HETATM   40  F8    D T1001      -2.638  -4.064  -4.388  1.00 39.18    -0.166 F 
HETATM   41  F9    D T1001      -3.641  -3.441  -6.259  1.00 37.72    -0.166 F 
HETATM   42  F10   D T1001      -1.982  -2.242  -5.374  1.00 39.32    -0.166 F 
ENDBRANCH  28  39
ENDBRANCH   2  24
TORSDOF 8
