REMARK  8 active torsions:
REMARK  status: ('A' for Active; 'I' for Inactive)
REMARK    1  A    between atoms: C1_1  and  C41_41 
REMARK    2  A    between atoms: C4_4  and  C11_11 
REMARK    3  A    between atoms: C5_5  and  C7_7 
REMARK    4  A    between atoms: C11_11  and  N12_12 
REMARK    5  A    between atoms: C15_15  and  N17_17 
REMARK    6  A    between atoms: C28_28  and  N32_32 
REMARK    7  A    between atoms: N32_32  and  C38_38 
REMARK    8  A    between atoms: C34_34  and  N40_40 
REMARK       I    between atoms: N40_40  and  C41_41 
ROOT
HETATM    1  N40   D T1001      -1.370   1.635  -3.881  1.00 37.15    -0.208 NA
HETATM    2  C41   D T1001      -1.712   1.436  -2.608  1.00 37.79     0.279 C 
HETATM    3  O42   D T1001      -2.206   0.366  -2.248  1.00 38.78    -0.265 OA
ENDROOT
BRANCH   1   4
HETATM    4  C34   D T1001      -1.233   0.747  -5.006  1.00 37.97     0.086 A 
HETATM    5  C33   D T1001      -1.471  -0.681  -4.933  1.00 37.70     0.039 A 
HETATM    6  C38   D T1001      -1.318  -1.479  -6.079  1.00 38.49     0.097 A 
HETATM    7  C37   D T1001      -0.932  -0.910  -7.323  1.00 38.20    -0.004 A 
HETATM    8  C36   D T1001      -0.695   0.498  -7.405  1.00 37.87    -0.001 A 
HETATM    9  C39   D T1001      -0.745  -1.695  -8.620  1.00 38.08     0.033 C 
HETATM   10  C35   D T1001      -0.848   1.322  -6.240  1.00 37.80     0.019 A 
BRANCH   6  11
HETATM   11  N32   D T1001      -1.569  -2.846  -5.956  1.00 38.25    -0.060 NA
BRANCH  11  12
HETATM   12  C28   D T1001      -2.763  -3.522  -6.172  1.00 38.40     0.750 A 
HETATM   13  N27   D T1001      -2.706  -4.834  -5.998  1.00 38.34    -0.063 NA
HETATM   14  C26   D T1001      -3.825  -5.613  -6.185  1.00 38.69     0.086 A 
HETATM   15  C24   D T1001      -3.722  -6.996  -5.993  1.00 38.59     0.053 A 
HETATM   16  C31   D T1001      -5.084  -4.948  -6.597  1.00 38.28     0.094 A 
HETATM   17  C23   D T1001      -2.452  -7.649  -5.599  1.00 37.81     0.103 A 
HETATM   18  C25   D T1001      -4.803  -7.980  -6.142  1.00 38.35     0.103 A 
HETATM   19  N22   D T1001      -2.325  -8.989  -5.405  1.00 38.06    -0.223 NA
HETATM   20  C21   D T1001      -3.418  -9.743  -5.583  1.00 38.54     0.199 A 
HETATM   21  N20   D T1001      -4.640  -9.306  -5.937  1.00 38.22    -0.223 NA
HETATM   22  C30   D T1001      -5.013  -3.538  -6.756  1.00 38.37     0.098 A 
HETATM   23  N29   D T1001      -3.841  -2.847  -6.545  1.00 38.67    -0.062 NA
ENDBRANCH  11  12
ENDBRANCH   6  11
ENDBRANCH   1   4
BRANCH   2  24
HETATM   24  C1    D T1001      -1.529   2.515  -1.591  1.00 38.65     0.058 A 
HETATM   25  C2    D T1001      -1.472   3.917  -1.873  1.00 37.93     0.004 A 
HETATM   26  C3    D T1001      -1.304   4.853  -0.831  1.00 37.95    -0.002 A 
HETATM   27  C4    D T1001      -1.192   4.424   0.559  1.00 38.26     0.015 A 
HETATM   28  C5    D T1001      -1.252   2.975   0.860  1.00 37.89     0.070 A 
HETATM   29  C6    D T1001      -1.416   2.084  -0.230  1.00 37.86     0.008 A 
BRANCH  27  30
HETATM   30  C11   D T1001      -1.016   5.561   1.612  1.00 37.72     0.277 C 
BRANCH  30  31
HETATM   31  N12   D T1001      -1.631   6.893   1.362  1.00 39.41     0.143 N 
HETATM   32  C13   D T1001      -1.217   7.978   2.274  1.00 38.92     0.253 C 
HETATM   33  C14   D T1001      -2.529   8.598   2.770  1.00 38.65     0.071 C 
HETATM   34  C15   D T1001      -3.449   8.318   1.557  1.00 38.81     0.255 C 
HETATM   35  C16   D T1001      -3.118   6.863   1.344  1.00 38.57     0.284 C 
BRANCH  34  36
HETATM   36  N17   D T1001      -4.941   8.602   1.752  1.00 39.14     0.141 N 
HETATM   37  C18   D T1001      -5.311  10.013   1.989  1.00 39.06     0.285 C 
HETATM   38  C19   D T1001      -5.726   8.026   0.600  1.00 38.52     0.285 C 
ENDBRANCH  34  36
ENDBRANCH  30  31
ENDBRANCH  27  30
BRANCH  28  39
HETATM   39  C7    D T1001      -1.153   2.339   2.295  1.00 38.38     0.418 C 
HETATM   40  F8    D T1001      -2.222   2.737   3.038  1.00 39.18    -0.166 F 
HETATM   41  F9    D T1001      -0.013   2.730   2.919  1.00 37.72    -0.166 F 
HETATM   42  F10   D T1001      -1.219   0.969   2.272  1.00 39.32    -0.166 F 
ENDBRANCH  28  39
ENDBRANCH   2  24
TORSDOF 8
