REMARK  8 active torsions:
REMARK  status: ('A' for Active; 'I' for Inactive)
REMARK    1  A    between atoms: C1_1  and  C41_41 
REMARK    2  A    between atoms: C4_4  and  C11_11 
REMARK    3  A    between atoms: C5_5  and  C7_7 
REMARK    4  A    between atoms: C11_11  and  N12_12 
REMARK    5  A    between atoms: C15_15  and  N17_17 
REMARK    6  A    between atoms: C28_28  and  N32_32 
REMARK    7  A    between atoms: N32_32  and  C38_38 
REMARK    8  A    between atoms: C34_34  and  N40_40 
REMARK       I    between atoms: N40_40  and  C41_41 
ROOT
HETATM    1  N40   D T1001      -5.475   7.487  -1.611  1.00 37.15    -0.208 NA
HETATM    2  C41   D T1001      -5.398   6.631  -0.592  1.00 37.79     0.279 C 
HETATM    3  O42   D T1001      -5.941   5.527  -0.654  1.00 38.78    -0.265 OA
ENDROOT
BRANCH   1   4
HETATM    4  C34   D T1001      -5.906   7.344  -2.976  1.00 37.97     0.086 A 
HETATM    5  C33   D T1001      -6.381   6.096  -3.539  1.00 37.70     0.039 A 
HETATM    6  C38   D T1001      -6.787   6.040  -4.884  1.00 38.49     0.097 A 
HETATM    7  C37   D T1001      -6.741   7.193  -5.712  1.00 38.20    -0.004 A 
HETATM    8  C36   D T1001      -6.274   8.429  -5.166  1.00 37.87    -0.001 A 
HETATM    9  C39   D T1001      -7.164   7.229  -7.179  1.00 38.08     0.033 C 
HETATM   10  C35   D T1001      -5.857   8.497  -3.794  1.00 37.80     0.019 A 
BRANCH   6  11
HETATM   11  N32   D T1001      -7.245   4.815  -5.372  1.00 38.25    -0.060 NA
BRANCH  11  12
HETATM   12  C28   D T1001      -8.550   4.340  -5.409  1.00 38.40     0.750 A 
HETATM   13  N27   D T1001      -8.697   3.141  -5.951  1.00 38.34    -0.063 NA
HETATM   14  C26   D T1001      -9.943   2.565  -6.046  1.00 38.69     0.086 A 
HETATM   15  C24   D T1001     -10.057   1.297  -6.628  1.00 38.59     0.053 A 
HETATM   16  C31   D T1001     -11.111   3.326  -5.539  1.00 38.28     0.094 A 
HETATM   17  C23   D T1001      -8.883   0.555  -7.147  1.00 37.81     0.103 A 
HETATM   18  C25   D T1001     -11.295   0.528  -6.810  1.00 38.35     0.103 A 
HETATM   19  N22   D T1001      -8.964  -0.677  -7.715  1.00 38.06    -0.223 NA
HETATM   20  C21   D T1001     -10.179  -1.237  -7.800  1.00 38.54     0.199 A 
HETATM   21  N20   D T1001     -11.337  -0.698  -7.377  1.00 38.22    -0.223 NA
HETATM   22  C30   D T1001     -10.821   4.602  -4.987  1.00 38.37     0.098 A 
HETATM   23  N29   D T1001      -9.535   5.092  -4.938  1.00 38.67    -0.062 NA
ENDBRANCH  11  12
ENDBRANCH   6  11
ENDBRANCH   1   4
BRANCH   2  24
HETATM   24  C1    D T1001      -4.672   7.000   0.662  1.00 38.65     0.058 A 
HETATM   25  C2    D T1001      -4.439   8.335   1.120  1.00 37.93     0.004 A 
HETATM   26  C3    D T1001      -3.746   8.569   2.327  1.00 37.95    -0.002 A 
HETATM   27  C4    D T1001      -3.256   7.464   3.144  1.00 38.26     0.015 A 
HETATM   28  C5    D T1001      -3.495   6.078   2.677  1.00 37.89     0.070 A 
HETATM   29  C6    D T1001      -4.191   5.908   1.454  1.00 37.86     0.008 A 
BRANCH  27  30
HETATM   30  C11   D T1001      -2.513   7.862   4.457  1.00 37.72     0.277 C 
BRANCH  30  31
HETATM   31  N12   D T1001      -2.901   9.110   5.168  1.00 39.41     0.143 N 
HETATM   32  C13   D T1001      -1.998   9.543   6.252  1.00 38.92     0.253 C 
HETATM   33  C14   D T1001      -2.914   9.778   7.459  1.00 38.65     0.071 C 
HETATM   34  C15   D T1001      -4.227  10.177   6.742  1.00 38.81     0.255 C 
HETATM   35  C16   D T1001      -4.281   9.068   5.722  1.00 38.57     0.284 C 
BRANCH  34  36
HETATM   36  N17   D T1001      -5.477  10.287   7.619  1.00 39.14     0.141 N 
HETATM   37  C18   D T1001      -5.459  11.344   8.652  1.00 39.06     0.285 C 
HETATM   38  C19   D T1001      -6.703  10.405   6.749  1.00 38.52     0.285 C 
ENDBRANCH  34  36
ENDBRANCH  30  31
ENDBRANCH  27  30
BRANCH  28  39
HETATM   39  C7    D T1001      -3.043   4.774   3.430  1.00 38.38     0.418 C 
HETATM   40  F8    D T1001      -3.696   4.694   4.622  1.00 39.18    -0.166 F 
HETATM   41  F9    D T1001      -1.706   4.789   3.661  1.00 37.72    -0.166 F 
HETATM   42  F10   D T1001      -3.381   3.629   2.754  1.00 39.32    -0.166 F 
ENDBRANCH  28  39
ENDBRANCH   2  24
TORSDOF 8
