REMARK  12 active torsions:
REMARK  status: ('A' for Active; 'I' for Inactive)
REMARK    1  A    between atoms: CAK_2  and  CAM_3 
REMARK    2  A    between atoms: CAM_3  and  NAS_4 
REMARK    3  A    between atoms: NAS_4  and  CAO_5 
REMARK    4  A    between atoms: CAO_5  and  CAQ_6 
REMARK    5  A    between atoms: CAQ_6  and  NAU_7 
REMARK    6  A    between atoms: NAU_7  and  CAY_8 
REMARK    7  A    between atoms: CAZ_25  and  NAV_26 
REMARK    8  A    between atoms: NAV_26  and  CAR_27 
REMARK    9  A    between atoms: CAR_27  and  CAP_28 
REMARK   10  A    between atoms: CAP_28  and  NAT_29 
REMARK   11  A    between atoms: NAT_29  and  CAN_30 
REMARK   12  A    between atoms: CAN_30  and  CAL_31 
ROOT
HETATM    1  CAY   D T 539       5.231   6.409  -6.806  1.00 91.53     0.079 A 
HETATM    2  CAI   D T 539       5.925   6.911  -5.715  1.00 91.56     0.020 A 
HETATM    3  CAJ   D T 539       6.642   6.071  -4.871  1.00 91.57     0.020 A 
HETATM    4  CBE   D T 539       5.266   5.049  -7.050  1.00 91.36     0.061 A 
HETATM    5  CBA   D T 539       4.573   4.561  -8.146  1.00 91.28     0.199 A 
HETATM    6  OAA   D T 539       3.951   5.342  -8.868  1.00 91.36    -0.286 OA
HETATM    7  CBC   D T 539       4.593   3.201  -8.418  1.00 91.28     0.069 A 
HETATM    8  CAW   D T 539       3.911   2.690  -9.511  1.00 91.39     0.134 A 
HETATM    9  OAE   D T 539       3.225   3.518 -10.322  1.00 91.60    -0.190 OA
HETATM   10  CAG   D T 539       3.913   1.335  -9.776  1.00 91.43     0.030 A 
HETATM   11  CAH   D T 539       4.620   0.485  -8.936  1.00 91.48     0.030 A 
HETATM   12  CAX   D T 539       5.311   0.979  -7.842  1.00 91.18     0.134 A 
HETATM   13  OAF   D T 539       5.998   0.141  -7.031  1.00 91.01    -0.190 OA
HETATM   14  CBD   D T 539       5.296   2.338  -7.590  1.00 91.30     0.069 A 
HETATM   15  CBB   D T 539       5.989   2.824  -6.497  1.00 91.65     0.199 A 
HETATM   16  OAB   D T 539       6.591   2.010  -5.801  1.00 91.77    -0.286 OA
HETATM   17  CBF   D T 539       5.989   4.191  -6.209  1.00 91.49     0.061 A 
HETATM   18  CAZ   D T 539       6.679   4.712  -5.105  1.00 91.40     0.079 A 
ENDROOT
BRANCH   1  19
HETATM   19  NAU   D T 539       4.548   7.217  -7.619  1.00 91.78    -0.268 NA
BRANCH  19  20
HETATM   20  CAQ   D T 539       4.094   8.545  -7.186  1.00 95.07     0.164 C 
BRANCH  20  21
HETATM   21  CAO   D T 539       5.068   9.625  -7.673  1.00 97.10     0.316 C 
BRANCH  21  22
HETATM   22  NAS   D T 539       4.460  10.952  -7.429  1.00100.56     0.344 N 
BRANCH  22  23
HETATM   23  CAM   D T 539       5.204  11.750  -6.423  1.00103.43     0.326 C 
BRANCH  23  24
HETATM   24  CAK   D T 539       6.277  12.627  -7.101  1.00104.61     0.221 C 
HETATM   25  OAC   D T 539       6.795  11.957  -8.272  1.00105.31    -0.218 OA
ENDBRANCH  23  24
ENDBRANCH  22  23
ENDBRANCH  21  22
ENDBRANCH  20  21
ENDBRANCH  19  20
ENDBRANCH   1  19
BRANCH  18  26
HETATM   26  NAV   D T 539       7.379   3.966  -4.259  1.00 91.54    -0.268 NA
BRANCH  26  27
HETATM   27  CAR   D T 539       6.871   3.682  -2.918  1.00 93.33     0.164 C 
BRANCH  27  28
HETATM   28  CAP   D T 539       8.050   3.141  -2.129  1.00 95.29     0.316 C 
BRANCH  28  29
HETATM   29  NAT   D T 539       7.573   2.591  -0.852  1.00 97.82     0.344 N 
BRANCH  29  30
HETATM   30  CAN   D T 539       7.984   3.428   0.307  1.00 99.13     0.326 C 
BRANCH  30  31
HETATM   31  CAL   D T 539       9.184   2.784   1.045  1.00100.48     0.221 C 
HETATM   32  OAD   D T 539       8.811   1.606   1.800  1.00101.70    -0.218 OA
ENDBRANCH  30  31
ENDBRANCH  29  30
ENDBRANCH  28  29
ENDBRANCH  27  28
ENDBRANCH  26  27
ENDBRANCH  18  26
TORSDOF 12
