REMARK  12 active torsions:
REMARK  status: ('A' for Active; 'I' for Inactive)
REMARK    1  A    between atoms: CAK_2  and  CAM_3 
REMARK    2  A    between atoms: CAM_3  and  NAS_4 
REMARK    3  A    between atoms: NAS_4  and  CAO_5 
REMARK    4  A    between atoms: CAO_5  and  CAQ_6 
REMARK    5  A    between atoms: CAQ_6  and  NAU_7 
REMARK    6  A    between atoms: NAU_7  and  CAY_8 
REMARK    7  A    between atoms: CAZ_25  and  NAV_26 
REMARK    8  A    between atoms: NAV_26  and  CAR_27 
REMARK    9  A    between atoms: CAR_27  and  CAP_28 
REMARK   10  A    between atoms: CAP_28  and  NAT_29 
REMARK   11  A    between atoms: NAT_29  and  CAN_30 
REMARK   12  A    between atoms: CAN_30  and  CAL_31 
ROOT
HETATM    1  CAY   D T 539      -0.246  -0.676  13.555  1.00 91.53     0.079 A 
HETATM    2  CAI   D T 539       1.066  -0.327  13.274  1.00 91.56     0.020 A 
HETATM    3  CAJ   D T 539       1.364   0.798  12.515  1.00 91.57     0.020 A 
HETATM    4  CBE   D T 539      -1.266   0.120  13.069  1.00 91.36     0.061 A 
HETATM    5  CBA   D T 539      -2.573  -0.236  13.360  1.00 91.28     0.199 A 
HETATM    6  OAA   D T 539      -2.792  -1.242  14.038  1.00 91.36    -0.286 OA
HETATM    7  CBC   D T 539      -3.618   0.545  12.889  1.00 91.28     0.069 A 
HETATM    8  CAW   D T 539      -4.932   0.211  13.171  1.00 91.39     0.134 A 
HETATM    9  OAE   D T 539      -5.204  -0.880  13.913  1.00 91.60    -0.190 OA
HETATM   10  CAG   D T 539      -5.977   0.976  12.689  1.00 91.43     0.030 A 
HETATM   11  CAH   D T 539      -5.691   2.098  11.923  1.00 91.48     0.030 A 
HETATM   12  CAX   D T 539      -4.383   2.450  11.636  1.00 91.18     0.134 A 
HETATM   13  OAF   D T 539      -4.117   3.547  10.889  1.00 91.01    -0.190 OA
HETATM   14  CBD   D T 539      -3.350   1.672  12.123  1.00 91.30     0.069 A 
HETATM   15  CBB   D T 539      -2.047   2.029  11.833  1.00 91.65     0.199 A 
HETATM   16  OAB   D T 539      -1.875   3.036  11.149  1.00 91.77    -0.286 OA
HETATM   17  CBF   D T 539      -0.979   1.260  12.305  1.00 91.49     0.061 A 
HETATM   18  CAZ   D T 539       0.352   1.596  12.022  1.00 91.40     0.079 A 
ENDROOT
BRANCH   1  19
HETATM   19  NAU   D T 539      -0.531  -1.752  14.290  1.00 91.78    -0.268 NA
BRANCH  19  20
HETATM   20  CAQ   D T 539       0.424  -2.859  14.441  1.00 95.07     0.164 C 
BRANCH  20  21
HETATM   21  CAO   D T 539       1.192  -2.722  15.761  1.00 97.10     0.316 C 
BRANCH  21  22
HETATM   22  NAS   D T 539       1.960  -3.965  15.992  1.00100.56     0.344 N 
BRANCH  22  23
HETATM   23  CAM   D T 539       3.428  -3.752  15.945  1.00103.43     0.326 C 
BRANCH  23  24
HETATM   24  CAK   D T 539       3.981  -3.429  17.348  1.00104.61     0.221 C 
HETATM   25  OAC   D T 539       2.995  -2.700  18.113  1.00105.31    -0.218 OA
ENDBRANCH  23  24
ENDBRANCH  22  23
ENDBRANCH  21  22
ENDBRANCH  20  21
ENDBRANCH  19  20
ENDBRANCH   1  19
BRANCH  18  26
HETATM   26  NAV   D T 539       0.705   2.653  11.301  1.00 91.54    -0.268 NA
BRANCH  26  27
HETATM   27  CAR   D T 539       1.193   2.494   9.932  1.00 93.33     0.164 C 
BRANCH  27  28
HETATM   28  CAP   D T 539       1.832   3.819   9.558  1.00 95.29     0.316 C 
BRANCH  28  29
HETATM   29  NAT   D T 539       2.119   3.834   8.116  1.00 97.82     0.344 N 
BRANCH  29  30
HETATM   30  CAN   D T 539       3.578   3.764   7.836  1.00 99.13     0.326 C 
BRANCH  30  31
HETATM   31  CAL   D T 539       4.127   5.162   7.456  1.00100.48     0.221 C 
HETATM   32  OAD   D T 539       3.712   5.589   6.137  1.00101.70    -0.218 OA
ENDBRANCH  30  31
ENDBRANCH  29  30
ENDBRANCH  28  29
ENDBRANCH  27  28
ENDBRANCH  26  27
ENDBRANCH  18  26
TORSDOF 12
