REMARK  12 active torsions:
REMARK  status: ('A' for Active; 'I' for Inactive)
REMARK    1  A    between atoms: CAK_2  and  CAM_3 
REMARK    2  A    between atoms: CAM_3  and  NAS_4 
REMARK    3  A    between atoms: NAS_4  and  CAO_5 
REMARK    4  A    between atoms: CAO_5  and  CAQ_6 
REMARK    5  A    between atoms: CAQ_6  and  NAU_7 
REMARK    6  A    between atoms: NAU_7  and  CAY_8 
REMARK    7  A    between atoms: CAZ_25  and  NAV_26 
REMARK    8  A    between atoms: NAV_26  and  CAR_27 
REMARK    9  A    between atoms: CAR_27  and  CAP_28 
REMARK   10  A    between atoms: CAP_28  and  NAT_29 
REMARK   11  A    between atoms: NAT_29  and  CAN_30 
REMARK   12  A    between atoms: CAN_30  and  CAL_31 
ROOT
HETATM    1  CAY   D T 539       5.437   4.351   8.175  1.00 91.53     0.079 A 
HETATM    2  CAI   D T 539       6.390   5.129   7.535  1.00 91.56     0.020 A 
HETATM    3  CAJ   D T 539       6.024   6.083   6.593  1.00 91.57     0.020 A 
HETATM    4  CBE   D T 539       4.104   4.540   7.864  1.00 91.36     0.061 A 
HETATM    5  CBA   D T 539       3.161   3.758   8.514  1.00 91.28     0.199 A 
HETATM    6  OAA   D T 539       3.531   2.925   9.343  1.00 91.36    -0.286 OA
HETATM    7  CBC   D T 539       1.815   3.928   8.225  1.00 91.28     0.069 A 
HETATM    8  CAW   D T 539       0.855   3.162   8.865  1.00 91.39     0.134 A 
HETATM    9  OAE   D T 539       1.225   2.245   9.780  1.00 91.60    -0.190 OA
HETATM   10  CAG   D T 539      -0.486   3.314   8.569  1.00 91.43     0.030 A 
HETATM   11  CAH   D T 539      -0.863   4.259   7.624  1.00 91.48     0.030 A 
HETATM   12  CAX   D T 539       0.084   5.037   6.978  1.00 91.18     0.134 A 
HETATM   13  OAF   D T 539      -0.296   5.956   6.059  1.00 91.01    -0.190 OA
HETATM   14  CBD   D T 539       1.421   4.869   7.285  1.00 91.30     0.069 A 
HETATM   15  CBB   D T 539       2.360   5.650   6.638  1.00 91.65     0.199 A 
HETATM   16  OAB   D T 539       1.948   6.464   5.814  1.00 91.77    -0.286 OA
HETATM   17  CBF   D T 539       3.721   5.501   6.919  1.00 91.49     0.061 A 
HETATM   18  CAZ   D T 539       4.695   6.275   6.275  1.00 91.40     0.079 A 
ENDROOT
BRANCH   1  19
HETATM   19  NAU   D T 539       5.789   3.440   9.084  1.00 91.78    -0.268 NA
BRANCH  19  20
HETATM   20  CAQ   D T 539       7.146   2.875   9.128  1.00 95.07     0.164 C 
BRANCH  20  21
HETATM   21  CAO   D T 539       7.987   3.596  10.188  1.00 97.10     0.316 C 
BRANCH  21  22
HETATM   22  NAS   D T 539       9.253   2.852  10.370  1.00100.56     0.344 N 
BRANCH  22  23
HETATM   23  CAM   D T 539      10.443   3.625   9.933  1.00103.43     0.326 C 
BRANCH  23  24
HETATM   24  CAK   D T 539      11.028   4.441  11.104  1.00104.61     0.221 C 
HETATM   25  OAC   D T 539       9.969   4.857  11.995  1.00105.31    -0.218 OA
ENDBRANCH  23  24
ENDBRANCH  22  23
ENDBRANCH  21  22
ENDBRANCH  20  21
ENDBRANCH  19  20
ENDBRANCH   1  19
BRANCH  18  26
HETATM   26  NAV   D T 539       4.415   7.200   5.364  1.00 91.54    -0.268 NA
BRANCH  26  27
HETATM   27  CAR   D T 539       4.679   6.956   3.947  1.00 93.33     0.164 C 
BRANCH  27  28
HETATM   28  CAP   D T 539       4.591   8.309   3.265  1.00 95.29     0.316 C 
BRANCH  28  29
HETATM   29  NAT   D T 539       4.590   8.124   1.807  1.00 97.82     0.344 N 
BRANCH  29  30
HETATM   30  CAN   D T 539       5.857   8.590   1.182  1.00 99.13     0.326 C 
BRANCH  30  31
HETATM   31  CAL   D T 539       5.657   9.971   0.509  1.00100.48     0.221 C 
HETATM   32  OAD   D T 539       4.876   9.894  -0.707  1.00101.70    -0.218 OA
ENDBRANCH  30  31
ENDBRANCH  29  30
ENDBRANCH  28  29
ENDBRANCH  27  28
ENDBRANCH  26  27
ENDBRANCH  18  26
TORSDOF 12
