REMARK  12 active torsions:
REMARK  status: ('A' for Active; 'I' for Inactive)
REMARK    1  A    between atoms: CAK_2  and  CAM_3 
REMARK    2  A    between atoms: CAM_3  and  NAS_4 
REMARK    3  A    between atoms: NAS_4  and  CAO_5 
REMARK    4  A    between atoms: CAO_5  and  CAQ_6 
REMARK    5  A    between atoms: CAQ_6  and  NAU_7 
REMARK    6  A    between atoms: NAU_7  and  CAY_8 
REMARK    7  A    between atoms: CAZ_25  and  NAV_26 
REMARK    8  A    between atoms: NAV_26  and  CAR_27 
REMARK    9  A    between atoms: CAR_27  and  CAP_28 
REMARK   10  A    between atoms: CAP_28  and  NAT_29 
REMARK   11  A    between atoms: NAT_29  and  CAN_30 
REMARK   12  A    between atoms: CAN_30  and  CAL_31 
ROOT
HETATM    1  CAY   D T 539     -12.971  -0.167  -5.422  1.00 91.53     0.079 A 
HETATM    2  CAI   D T 539     -14.132   0.077  -4.703  1.00 91.56     0.020 A 
HETATM    3  CAJ   D T 539     -14.236   1.175  -3.858  1.00 91.57     0.020 A 
HETATM    4  CBE   D T 539     -11.909   0.708  -5.289  1.00 91.36     0.061 A 
HETATM    5  CBA   D T 539     -10.756   0.455  -6.016  1.00 91.28     0.199 A 
HETATM    6  OAA   D T 539     -10.707  -0.530  -6.754  1.00 91.36    -0.286 OA
HETATM    7  CBC   D T 539      -9.675   1.318  -5.906  1.00 91.28     0.069 A 
HETATM    8  CAW   D T 539      -8.514   1.088  -6.626  1.00 91.39     0.134 A 
HETATM    9  OAE   D T 539      -8.430   0.022  -7.445  1.00 91.60    -0.190 OA
HETATM   10  CAG   D T 539      -7.428   1.934  -6.507  1.00 91.43     0.030 A 
HETATM   11  CAH   D T 539      -7.518   3.030  -5.660  1.00 91.48     0.030 A 
HETATM   12  CAX   D T 539      -8.673   3.277  -4.936  1.00 91.18     0.134 A 
HETATM   13  OAF   D T 539      -8.750   4.350  -4.114  1.00 91.01    -0.190 OA
HETATM   14  CBD   D T 539      -9.749   2.419  -5.065  1.00 91.30     0.069 A 
HETATM   15  CBB   D T 539     -10.898   2.673  -4.341  1.00 91.65     0.199 A 
HETATM   16  OAB   D T 539     -10.902   3.663  -3.612  1.00 91.77    -0.286 OA
HETATM   17  CBF   D T 539     -12.002   1.821  -4.443  1.00 91.49     0.061 A 
HETATM   18  CAZ   D T 539     -13.179   2.051  -3.717  1.00 91.40     0.079 A 
ENDROOT
BRANCH   1  19
HETATM   19  NAU   D T 539     -12.873  -1.218  -6.237  1.00 91.78    -0.268 NA
BRANCH  19  20
HETATM   20  CAQ   D T 539     -13.737  -2.397  -6.086  1.00 95.07     0.164 C 
BRANCH  20  21
HETATM   21  CAO   D T 539     -14.916  -2.321  -7.063  1.00 97.10     0.316 C 
BRANCH  21  22
HETATM   22  NAS   D T 539     -15.622  -3.621  -7.052  1.00100.56     0.344 N 
BRANCH  22  23
HETATM   23  CAM   D T 539     -16.999  -3.525  -6.505  1.00103.43     0.326 C 
BRANCH  23  24
HETATM   24  CAK   D T 539     -18.018  -3.248  -7.628  1.00104.61     0.221 C 
HETATM   25  OAC   D T 539     -17.408  -2.443  -8.663  1.00105.31    -0.218 OA
ENDBRANCH  23  24
ENDBRANCH  22  23
ENDBRANCH  21  22
ENDBRANCH  20  21
ENDBRANCH  19  20
ENDBRANCH   1  19
BRANCH  18  26
HETATM   26  NAV   D T 539     -13.344   3.077  -2.890  1.00 91.54    -0.268 NA
BRANCH  26  27
HETATM   27  CAR   D T 539     -13.323   2.879  -1.442  1.00 93.33     0.164 C 
BRANCH  27  28
HETATM   28  CAP   D T 539     -13.894   4.150  -0.837  1.00 95.29     0.316 C 
BRANCH  28  29
HETATM   29  NAT   D T 539     -13.674   4.142   0.616  1.00 97.82     0.344 N 
BRANCH  29  30
HETATM   30  CAN   D T 539     -14.941   3.957   1.373  1.00 99.13     0.326 C 
BRANCH  30  31
HETATM   31  CAL   D T 539     -15.431   5.307   1.953  1.00100.48     0.221 C 
HETATM   32  OAD   D T 539     -14.624   5.766   3.064  1.00101.70    -0.218 OA
ENDBRANCH  30  31
ENDBRANCH  29  30
ENDBRANCH  28  29
ENDBRANCH  27  28
ENDBRANCH  26  27
ENDBRANCH  18  26
TORSDOF 12
