REMARK  3 active torsions:
REMARK  status: ('A' for Active; 'I' for Inactive)
REMARK    1  A    between atoms: C8_11  and  C9_12 
REMARK    2  A    between atoms: C10_13  and  N2_14 
REMARK    3  A    between atoms: N2_14  and  C11_15 
ROOT
HETATM    1  C1    D T 298       5.426   0.699  -7.434  1.00 17.20     0.036 A 
HETATM    2  C2    D T 298       6.305  -0.039  -6.613  1.00 17.20     0.014 A 
HETATM    3  C3    D T 298       6.284  -1.435  -6.592  1.00 17.20     0.058 A 
HETATM    4 CL     D T 298       7.384  -2.278  -5.576  1.00 17.20    -0.082 Cl
HETATM    5  C4    D T 298       5.382  -2.144  -7.388  1.00 17.20     0.013 A 
HETATM    6  C5    D T 298       4.496  -1.440  -8.220  1.00 17.20     0.020 A 
HETATM    7  C6    D T 298       4.524  -0.033  -8.238  1.00 17.20     0.086 A 
HETATM    8  N1    D T 298       3.640   0.650  -9.086  1.00 17.20    -0.208 NA
HETATM    9  C7    D T 298       3.595   2.025  -9.191  1.00 17.20     0.284 A 
HETATM   10  O1    D T 298       2.795   2.572  -9.956  1.00 17.20    -0.265 OA
HETATM   11  C8    D T 298       4.540   2.821  -8.330  1.00 17.20     0.111 A 
HETATM   12  C10   D T 298       5.418   2.188  -7.490  1.00 17.20     0.085 A 
ENDROOT
BRANCH  11  13
HETATM   13  C9    D T 298       4.551   4.269  -8.388  1.00 17.20     0.169 A 
HETATM   14  N3    D T 298       5.306   5.134  -7.711  1.00 17.20    -0.225 NA
HETATM   15  C12   D T 298       4.922   6.385  -8.120  1.00 17.20     0.101 A 
HETATM   16  C13   D T 298       3.902   6.306  -9.067  1.00 17.20     0.101 A 
HETATM   17  C14   D T 298       5.401   7.652  -7.718  1.00 17.20     0.021 A 
HETATM   18  N4    D T 298       3.683   4.958  -9.219  1.00 17.20    -0.225 NA
HETATM   19  C17   D T 298       3.318   7.436  -9.658  1.00 17.20     0.021 A 
HETATM   20  C16   D T 298       3.808   8.692  -9.246  1.00 17.20     0.002 A 
HETATM   21  C15   D T 298       4.833   8.801  -8.293  1.00 17.20     0.002 A 
ENDBRANCH  11  13
BRANCH  12  22
HETATM   22  N2    D T 298       6.286   2.925  -6.677  1.00 17.20    -0.270 NA
BRANCH  22  23
HETATM   23  C11   D T 298       6.573   2.866  -5.252  1.00 20.30     0.137 C 
HETATM   24  C18   D T 298       5.815   4.010  -4.518  1.00 20.30     0.274 C 
HETATM   25  N5    D T 298       6.822   4.891  -3.776  1.00 20.30     0.139 N 
HETATM   26  C19   D T 298       7.568   4.067  -2.740  1.00 20.30     0.250 C 
HETATM   27  C21   D T 298       7.812   5.519  -4.753  1.00 20.30     0.250 C 
HETATM   28  C20   D T 298       8.329   2.945  -3.463  1.00 20.30     0.037 C 
HETATM   29  C23   D T 298       8.094   3.020  -4.991  1.00 20.30     0.029 C 
HETATM   30  C22   D T 298       8.574   4.402  -5.474  1.00 20.30     0.037 C 
ENDBRANCH  22  23
ENDBRANCH  12  22
TORSDOF 3
