REMARK  3 active torsions:
REMARK  status: ('A' for Active; 'I' for Inactive)
REMARK    1  A    between atoms: C8_11  and  C9_12 
REMARK    2  A    between atoms: C10_13  and  N2_14 
REMARK    3  A    between atoms: N2_14  and  C11_15 
ROOT
HETATM    1  C1    D T 298      -3.063  -3.984  -5.179  1.00 17.20     0.036 A 
HETATM    2  C2    D T 298      -3.585  -2.682  -5.331  1.00 17.20     0.014 A 
HETATM    3  C3    D T 298      -2.787  -1.551  -5.151  1.00 17.20     0.058 A 
HETATM    4 CL     D T 298      -3.478   0.008  -5.356  1.00 17.20    -0.082 Cl
HETATM    5  C4    D T 298      -1.438  -1.679  -4.809  1.00 17.20     0.013 A 
HETATM    6  C5    D T 298      -0.886  -2.962  -4.655  1.00 17.20     0.020 A 
HETATM    7  C6    D T 298      -1.696  -4.098  -4.840  1.00 17.20     0.086 A 
HETATM    8  N1    D T 298      -1.122  -5.369  -4.695  1.00 17.20    -0.208 NA
HETATM    9  C7    D T 298      -1.821  -6.546  -4.868  1.00 17.20     0.284 A 
HETATM   10  O1    D T 298      -1.261  -7.637  -4.727  1.00 17.20    -0.265 OA
HETATM   11  C8    D T 298      -3.282  -6.442  -5.215  1.00 17.20     0.111 A 
HETATM   12  C10   D T 298      -3.878  -5.218  -5.367  1.00 17.20     0.085 A 
ENDROOT
BRANCH  11  13
HETATM   13  C9    D T 298      -4.081  -7.635  -5.416  1.00 17.20     0.169 A 
HETATM   14  N3    D T 298      -5.373  -7.743  -5.724  1.00 17.20    -0.225 NA
HETATM   15  C12   D T 298      -5.645  -9.086  -5.788  1.00 17.20     0.101 A 
HETATM   16  C13   D T 298      -4.504  -9.836  -5.507  1.00 17.20     0.101 A 
HETATM   17  C14   D T 298      -6.859  -9.747  -6.078  1.00 17.20     0.021 A 
HETATM   18  N4    D T 298      -3.528  -8.898  -5.273  1.00 17.20    -0.225 NA
HETATM   19  C17   D T 298      -4.494 -11.239  -5.503  1.00 17.20     0.021 A 
HETATM   20  C16   D T 298      -5.713 -11.883  -5.794  1.00 17.20     0.002 A 
HETATM   21  C15   D T 298      -6.878 -11.152  -6.078  1.00 17.20     0.002 A 
ENDBRANCH  11  13
BRANCH  12  22
HETATM   22  N2    D T 298      -5.239  -5.118  -5.674  1.00 17.20    -0.270 NA
BRANCH  22  23
HETATM   23  C11   D T 298      -6.322  -4.356  -5.070  1.00 20.30     0.137 C 
HETATM   24  C18   D T 298      -7.170  -5.287  -4.156  1.00 20.30     0.274 C 
HETATM   25  N5    D T 298      -8.624  -5.278  -4.633  1.00 20.30     0.139 N 
HETATM   26  C19   D T 298      -9.190  -3.870  -4.543  1.00 20.30     0.250 C 
HETATM   27  C21   D T 298      -8.726  -5.788  -6.067  1.00 20.30     0.250 C 
HETATM   28  C20   D T 298      -8.363  -2.951  -5.455  1.00 20.30     0.037 C 
HETATM   29  C23   D T 298      -7.240  -3.748  -6.162  1.00 20.30     0.029 C 
HETATM   30  C22   D T 298      -7.904  -4.872  -6.979  1.00 20.30     0.037 C 
ENDBRANCH  22  23
ENDBRANCH  12  22
TORSDOF 3
