REMARK  3 active torsions:
REMARK  status: ('A' for Active; 'I' for Inactive)
REMARK    1  A    between atoms: C8_11  and  C9_12 
REMARK    2  A    between atoms: C10_13  and  N2_14 
REMARK    3  A    between atoms: N2_14  and  C11_15 
ROOT
HETATM    1  C1    D T 298       0.072   5.231   6.538  1.00 17.20     0.036 A 
HETATM    2  C2    D T 298      -0.227   6.324   5.696  1.00 17.20     0.014 A 
HETATM    3  C3    D T 298      -1.497   6.490   5.140  1.00 17.20     0.058 A 
HETATM    4 CL     D T 298      -1.802   7.845   4.129  1.00 17.20    -0.082 Cl
HETATM    5  C4    D T 298      -2.514   5.569   5.402  1.00 17.20     0.013 A 
HETATM    6  C5    D T 298      -2.251   4.472   6.239  1.00 17.20     0.020 A 
HETATM    7  C6    D T 298      -0.970   4.311   6.798  1.00 17.20     0.086 A 
HETATM    8  N1    D T 298      -0.732   3.217   7.642  1.00 17.20    -0.208 NA
HETATM    9  C7    D T 298       0.482   2.975   8.252  1.00 17.20     0.284 A 
HETATM   10  O1    D T 298       0.632   1.994   8.987  1.00 17.20    -0.265 OA
HETATM   11  C8    D T 298       1.606   3.937   7.973  1.00 17.20     0.111 A 
HETATM   12  C10   D T 298       1.411   5.019   7.156  1.00 17.20     0.085 A 
ENDROOT
BRANCH  11  13
HETATM   13  C9    D T 298       2.908   3.749   8.581  1.00 17.20     0.169 A 
HETATM   14  N3    D T 298       4.012   4.485   8.456  1.00 17.20    -0.225 NA
HETATM   15  C12   D T 298       4.972   3.878   9.224  1.00 17.20     0.101 A 
HETATM   16  C13   D T 298       4.464   2.734   9.838  1.00 17.20     0.101 A 
HETATM   17  C14   D T 298       6.318   4.247   9.444  1.00 17.20     0.021 A 
HETATM   18  N4    D T 298       3.159   2.671   9.416  1.00 17.20    -0.225 NA
HETATM   19  C17   D T 298       5.230   1.916  10.683  1.00 17.20     0.021 A 
HETATM   20  C16   D T 298       6.571   2.299  10.891  1.00 17.20     0.002 A 
HETATM   21  C15   D T 298       7.108   3.445  10.284  1.00 17.20     0.002 A 
ENDBRANCH  11  13
BRANCH  12  22
HETATM   22  N2    D T 298       2.457   5.905   6.882  1.00 17.20    -0.270 NA
BRANCH  22  23
HETATM   23  C11   D T 298       2.989   6.431   5.633  1.00 20.30     0.137 C 
HETATM   24  C18   D T 298       4.288   5.663   5.253  1.00 20.30     0.274 C 
HETATM   25  N5    D T 298       5.446   6.655   5.128  1.00 20.30     0.139 N 
HETATM   26  C19   D T 298       5.147   7.665   4.033  1.00 20.30     0.250 C 
HETATM   27  C21   D T 298       5.683   7.377   6.451  1.00 20.30     0.250 C 
HETATM   28  C20   D T 298       3.873   8.435   4.412  1.00 20.30     0.037 C 
HETATM   29  C23   D T 298       3.318   7.941   5.769  1.00 20.30     0.029 C 
HETATM   30  C22   D T 298       4.415   8.148   6.830  1.00 20.30     0.037 C 
ENDBRANCH  22  23
ENDBRANCH  12  22
TORSDOF 3
