REMARK  3 active torsions:
REMARK  status: ('A' for Active; 'I' for Inactive)
REMARK    1  A    between atoms: C8_11  and  C9_12 
REMARK    2  A    between atoms: C10_13  and  N2_14 
REMARK    3  A    between atoms: N2_14  and  C11_15 
ROOT
HETATM    1  C1    D T 298       6.496   0.331  -7.146  1.00 17.20     0.036 A 
HETATM    2  C2    D T 298       6.462  -1.070  -6.983  1.00 17.20     0.014 A 
HETATM    3  C3    D T 298       5.559  -1.865  -7.693  1.00 17.20     0.058 A 
HETATM    4 CL     D T 298       5.570  -3.567  -7.456  1.00 17.20    -0.082 Cl
HETATM    5  C4    D T 298       4.655  -1.288  -8.588  1.00 17.20     0.013 A 
HETATM    6  C5    D T 298       4.666   0.104  -8.776  1.00 17.20     0.020 A 
HETATM    7  C6    D T 298       5.580   0.899  -8.060  1.00 17.20     0.086 A 
HETATM    8  N1    D T 298       5.584   2.285  -8.273  1.00 17.20    -0.208 NA
HETATM    9  C7    D T 298       6.447   3.152  -7.635  1.00 17.20     0.284 A 
HETATM   10  O1    D T 298       6.403   4.364  -7.864  1.00 17.20    -0.265 OA
HETATM   11  C8    D T 298       7.419   2.565  -6.647  1.00 17.20     0.111 A 
HETATM   12  C10   D T 298       7.447   1.215  -6.414  1.00 17.20     0.085 A 
ENDROOT
BRANCH  11  13
HETATM   13  C9    D T 298       8.358   3.414  -5.941  1.00 17.20     0.169 A 
HETATM   14  N3    D T 298       9.282   3.081  -5.041  1.00 17.20    -0.225 NA
HETATM   15  C12   D T 298       9.898   4.249  -4.669  1.00 17.20     0.101 A 
HETATM   16  C13   D T 298       9.345   5.336  -5.342  1.00 17.20     0.101 A 
HETATM   17  C14   D T 298      10.946   4.462  -3.745  1.00 17.20     0.021 A 
HETATM   18  N4    D T 298       8.372   4.785  -6.139  1.00 17.20    -0.225 NA
HETATM   19  C17   D T 298       9.784   6.656  -5.154  1.00 17.20     0.021 A 
HETATM   20  C16   D T 298      10.830   6.850  -4.230  1.00 17.20     0.002 A 
HETATM   21  C15   D T 298      11.404   5.773  -3.536  1.00 17.20     0.002 A 
ENDBRANCH  11  13
BRANCH  12  22
HETATM   22  N2    D T 298       8.338   0.669  -5.485  1.00 17.20    -0.270 NA
BRANCH  22  23
HETATM   23  C11   D T 298       8.144  -0.243  -4.367  1.00 20.30     0.137 C 
HETATM   24  C18   D T 298       8.125   0.560  -3.034  1.00 20.30     0.274 C 
HETATM   25  N5    D T 298       9.229   0.039  -2.111  1.00 20.30     0.139 N 
HETATM   26  C19   D T 298       8.987  -1.428  -1.793  1.00 20.30     0.250 C 
HETATM   27  C21   D T 298      10.600   0.212  -2.758  1.00 20.30     0.250 C 
HETATM   28  C20   D T 298       9.020  -2.225  -3.105  1.00 20.30     0.037 C 
HETATM   29  C23   D T 298       9.288  -1.290  -4.308  1.00 20.30     0.029 C 
HETATM   30  C22   D T 298      10.636  -0.585  -4.066  1.00 20.30     0.037 C 
ENDBRANCH  22  23
ENDBRANCH  12  22
TORSDOF 3
