REMARK  3 active torsions:
REMARK  status: ('A' for Active; 'I' for Inactive)
REMARK    1  A    between atoms: C8_11  and  C9_12 
REMARK    2  A    between atoms: C10_13  and  N2_14 
REMARK    3  A    between atoms: N2_14  and  C11_15 
ROOT
HETATM    1  C1    D T 298      -8.734   3.629  -4.568  1.00 17.20     0.036 A 
HETATM    2  C2    D T 298      -8.980   4.791  -3.807  1.00 17.20     0.014 A 
HETATM    3  C3    D T 298      -7.941   5.637  -3.413  1.00 17.20     0.058 A 
HETATM    4 CL     D T 298      -8.304   7.042  -2.492  1.00 17.20    -0.082 Cl
HETATM    5  C4    D T 298      -6.620   5.351  -3.762  1.00 17.20     0.013 A 
HETATM    6  C5    D T 298      -6.341   4.203  -4.523  1.00 17.20     0.020 A 
HETATM    7  C6    D T 298      -7.392   3.356  -4.920  1.00 17.20     0.086 A 
HETATM    8  N1    D T 298      -7.095   2.223  -5.690  1.00 17.20    -0.208 NA
HETATM    9  C7    D T 298      -8.050   1.337  -6.142  1.00 17.20     0.284 A 
HETATM   10  O1    D T 298      -7.728   0.356  -6.819  1.00 17.20    -0.265 OA
HETATM   11  C8    D T 298      -9.483   1.604  -5.765  1.00 17.20     0.111 A 
HETATM   12  C10   D T 298      -9.813   2.702  -5.014  1.00 17.20     0.085 A 
ENDROOT
BRANCH  11  13
HETATM   13  C9    D T 298     -10.542   0.718  -6.206  1.00 17.20     0.169 A 
HETATM   14  N3    D T 298     -11.852   0.789  -5.975  1.00 17.20    -0.225 NA
HETATM   15  C12   D T 298     -12.415  -0.293  -6.602  1.00 17.20     0.101 A 
HETATM   16  C13   D T 298     -11.439  -1.063  -7.231  1.00 17.20     0.101 A 
HETATM   17  C14   D T 298     -13.769  -0.691  -6.671  1.00 17.20     0.021 A 
HETATM   18  N4    D T 298     -10.262  -0.407  -6.966  1.00 17.20    -0.225 NA
HETATM   19  C17   D T 298     -11.733  -2.232  -7.950  1.00 17.20     0.021 A 
HETATM   20  C16   D T 298     -13.089  -2.615  -8.010  1.00 17.20     0.002 A 
HETATM   21  C15   D T 298     -14.092  -1.859  -7.383  1.00 17.20     0.002 A 
ENDBRANCH  11  13
BRANCH  12  22
HETATM   22  N2    D T 298     -11.140   2.944  -4.648  1.00 17.20    -0.270 NA
BRANCH  22  23
HETATM   23  C11   D T 298     -11.761   3.233  -3.364  1.00 20.30     0.137 C 
HETATM   24  C18   D T 298     -12.432   1.945  -2.805  1.00 20.30     0.274 C 
HETATM   25  N5    D T 298     -13.922   2.206  -2.577  1.00 20.30     0.139 N 
HETATM   26  C19   D T 298     -14.102   3.322  -1.561  1.00 20.30     0.250 C 
HETATM   27  C21   D T 298     -14.611   2.579  -3.886  1.00 20.30     0.250 C 
HETATM   28  C20   D T 298     -13.454   4.599  -2.116  1.00 20.30     0.037 C 
HETATM   29  C23   D T 298     -12.839   4.339  -3.512  1.00 20.30     0.029 C 
HETATM   30  C22   D T 298     -13.968   3.854  -4.441  1.00 20.30     0.037 C 
ENDBRANCH  22  23
ENDBRANCH  12  22
TORSDOF 3
