REMARK  3 active torsions:
REMARK  status: ('A' for Active; 'I' for Inactive)
REMARK    1  A    between atoms: C8_11  and  C9_12 
REMARK    2  A    between atoms: C10_13  and  N2_14 
REMARK    3  A    between atoms: N2_14  and  C11_15 
ROOT
HETATM    1  C1    D T 298       2.445  11.785   1.014  1.00 17.20     0.036 A 
HETATM    2  C2    D T 298       1.965  12.763   0.117  1.00 17.20     0.014 A 
HETATM    3  C3    D T 298       0.604  12.886  -0.168  1.00 17.20     0.058 A 
HETATM    4 CL     D T 298       0.080  14.101  -1.264  1.00 17.20    -0.082 Cl
HETATM    5  C4    D T 298      -0.327  12.034   0.429  1.00 17.20     0.013 A 
HETATM    6  C5    D T 298       0.117  11.051   1.331  1.00 17.20     0.020 A 
HETATM    7  C6    D T 298       1.490  10.935   1.616  1.00 17.20     0.086 A 
HETATM    8  N1    D T 298       1.911   9.957   2.529  1.00 17.20    -0.208 NA
HETATM    9  C7    D T 298       3.229   9.768   2.889  1.00 17.20     0.284 A 
HETATM   10  O1    D T 298       3.540   8.891   3.699  1.00 17.20    -0.265 OA
HETATM   11  C8    D T 298       4.261  10.656   2.245  1.00 17.20     0.111 A 
HETATM   12  C10   D T 298       3.888  11.624   1.350  1.00 17.20     0.085 A 
ENDROOT
BRANCH  11  13
HETATM   13  C9    D T 298       5.666  10.518   2.577  1.00 17.20     0.169 A 
HETATM   14  N3    D T 298       6.712  11.203   2.117  1.00 17.20    -0.225 NA
HETATM   15  C12   D T 298       7.819  10.679   2.734  1.00 17.20     0.101 A 
HETATM   16  C13   D T 298       7.462   9.641   3.592  1.00 17.20     0.101 A 
HETATM   17  C14   D T 298       9.179  11.041   2.605  1.00 17.20     0.021 A 
HETATM   18  N4    D T 298       6.097   9.555   3.475  1.00 17.20    -0.225 NA
HETATM   19  C17   D T 298       8.398   8.924   4.354  1.00 17.20     0.021 A 
HETATM   20  C16   D T 298       9.750   9.297   4.214  1.00 17.20     0.002 A 
HETATM   21  C15   D T 298      10.137  10.338   3.355  1.00 17.20     0.002 A 
ENDBRANCH  11  13
BRANCH  12  22
HETATM   22  N2    D T 298       4.845  12.439   0.739  1.00 17.20    -0.270 NA
BRANCH  22  23
HETATM   23  C11   D T 298       5.090  12.780  -0.655  1.00 20.30     0.137 C 
HETATM   24  C18   D T 298       6.278  11.936  -1.199  1.00 20.30     0.274 C 
HETATM   25  N5    D T 298       7.377  12.873  -1.705  1.00 20.30     0.139 N 
HETATM   26  C19   D T 298       6.842  13.735  -2.837  1.00 20.30     0.250 C 
HETATM   27  C21   D T 298       7.893  13.759  -0.576  1.00 20.30     0.250 C 
HETATM   28  C20   D T 298       5.677  14.580  -2.299  1.00 20.30     0.037 C 
HETATM   29  C23   D T 298       5.434  14.286  -0.799  1.00 20.30     0.029 C 
HETATM   30  C22   D T 298       6.735  14.605  -0.039  1.00 20.30     0.037 C 
ENDBRANCH  22  23
ENDBRANCH  12  22
TORSDOF 3
