REMARK  6 active torsions:
REMARK  status: ('A' for Active; 'I' for Inactive)
REMARK    1  A    between atoms: NBF_3  and  CAN_4 
REMARK    2  A    between atoms: NBG_8  and  CAS_9 
REMARK    3  A    between atoms: CAS_9  and  CAX_10 
REMARK    4  A    between atoms: CAY_15  and  CBA_16 
REMARK    5  A    between atoms: NAV_25  and  CBE_26 
REMARK    6  A    between atoms: CBE_26  and  CAZ_28 
ROOT
HETATM    1  CBA   D T2019     -11.225   0.500  -7.129  1.00 67.38     0.083 A 
HETATM    2  NAW   D T2019     -10.004   0.034  -7.431  1.00 64.38    -0.227 NA
HETATM    3  CAM   D T2019     -11.101   1.619  -6.412  1.00 64.23     0.025 A 
HETATM    4  C5    D T2019      -9.805   1.883  -6.281  1.00 64.03     0.073 A 
HETATM    5  C4    D T2019      -9.106   0.878  -6.931  1.00 64.35     0.167 A 
HETATM    6  N3    D T2019      -7.756   0.904  -6.936  1.00 65.15    -0.205 NA
HETATM    7  C2    D T2019      -7.079   1.879  -6.319  1.00 64.91     0.202 A 
HETATM    8  N1    D T2019      -7.720   2.857  -5.691  1.00 65.23    -0.205 NA
HETATM    9  C6    D T2019      -9.080   2.896  -5.652  1.00 65.21     0.163 A 
HETATM   10  NAV   D T2019      -9.724   3.883  -5.011  1.00 66.46    -0.250 NA
ENDROOT
BRANCH   1  11
HETATM   11  CAY   D T2019     -12.428  -0.121  -7.466  1.00 67.34     0.018 A 
HETATM   12  CAK   D T2019     -12.458  -1.169  -8.398  1.00 69.05     0.001 A 
HETATM   13  CAI   D T2019     -13.672  -1.793  -8.700  1.00 70.54    -0.002 A 
HETATM   14  CAX   D T2019     -14.843  -1.364  -8.068  1.00 71.07     0.011 A 
HETATM   15  CAJ   D T2019     -14.812  -0.340  -7.128  1.00 68.91    -0.002 A 
HETATM   16  CAL   D T2019     -13.603   0.277  -6.830  1.00 67.71     0.001 A 
BRANCH  14  17
HETATM   17  CAS   D T2019     -16.165  -2.072  -8.355  1.00 74.21     0.277 C 
BRANCH  17  18
HETATM   18  NBG   D T2019     -16.068  -3.367  -7.598  1.00 81.39     0.146 N 
HETATM   19  CAQ   D T2019     -16.068  -4.543  -8.507  1.00 83.32     0.286 C 
HETATM   20  CAO   D T2019     -17.516  -4.875  -8.943  1.00 86.22     0.285 C 
HETATM   21  NBF   D T2019     -18.419  -5.160  -7.779  1.00 86.50     0.141 N 
HETATM   22  CAP   D T2019     -18.399  -4.127  -6.694  1.00 84.69     0.285 C 
HETATM   23  CAR   D T2019     -17.017  -3.462  -6.432  1.00 81.90     0.286 C 
BRANCH  21  24
HETATM   24  CAN   D T2019     -18.238  -6.551  -7.273  1.00 86.80     0.251 C 
HETATM   25  CAA   D T2019     -18.408  -7.582  -8.416  1.00 86.31     0.037 C 
ENDBRANCH  21  24
ENDBRANCH  17  18
ENDBRANCH  14  17
ENDBRANCH   1  11
BRANCH  10  26
HETATM   26  CBE   D T2019      -9.015   4.669  -3.995  1.00 69.45     0.127 C 
HETATM   27  CAB   D T2019      -9.974   5.322  -2.988  1.00 70.81     0.031 C 
BRANCH  26  28
HETATM   28  CAZ   D T2019      -8.155   5.710  -4.723  1.00 71.15    -0.000 A 
HETATM   29  CAG   D T2019      -8.320   5.891  -6.118  1.00 70.34    -0.002 A 
HETATM   30  CAD   D T2019      -7.543   6.817  -6.825  1.00 69.22    -0.000 A 
HETATM   31  CAC   D T2019      -6.601   7.560  -6.102  1.00 70.75    -0.000 A 
HETATM   32  CAE   D T2019      -6.436   7.387  -4.713  1.00 71.52    -0.000 A 
HETATM   33  CAH   D T2019      -7.199   6.453  -4.008  1.00 71.18    -0.002 A 
ENDBRANCH  26  28
ENDBRANCH  10  26
TORSDOF 6
