REMARK  6 active torsions:
REMARK  status: ('A' for Active; 'I' for Inactive)
REMARK    1  A    between atoms: NBF_3  and  CAN_4 
REMARK    2  A    between atoms: NBG_8  and  CAS_9 
REMARK    3  A    between atoms: CAS_9  and  CAX_10 
REMARK    4  A    between atoms: CAY_15  and  CBA_16 
REMARK    5  A    between atoms: NAV_25  and  CBE_26 
REMARK    6  A    between atoms: CBE_26  and  CAZ_28 
ROOT
HETATM    1  CBA   D T2019       6.604  10.808   3.344  1.00 67.38     0.083 A 
HETATM    2  NAW   D T2019       5.872   9.823   3.886  1.00 64.38    -0.227 NA
HETATM    3  CAM   D T2019       5.816  11.567   2.580  1.00 64.23     0.025 A 
HETATM    4  C5    D T2019       4.579  11.087   2.657  1.00 64.03     0.073 A 
HETATM    5  C4    D T2019       4.613   9.980   3.490  1.00 64.35     0.167 A 
HETATM    6  N3    D T2019       3.475   9.293   3.727  1.00 65.15    -0.205 NA
HETATM    7  C2    D T2019       2.315   9.656   3.168  1.00 64.91     0.202 A 
HETATM    8  N1    D T2019       2.251  10.714   2.369  1.00 65.23    -0.205 NA
HETATM    9  C6    D T2019       3.358  11.456   2.091  1.00 65.21     0.163 A 
HETATM   10  NAV   D T2019       3.289  12.521   1.279  1.00 66.46    -0.250 NA
ENDROOT
BRANCH   1  11
HETATM   11  CAY   D T2019       7.979  10.973   3.511  1.00 67.34     0.018 A 
HETATM   12  CAK   D T2019       8.673  10.257   4.497  1.00 69.05     0.001 A 
HETATM   13  CAI   D T2019      10.055  10.420   4.629  1.00 70.54    -0.002 A 
HETATM   14  CAX   D T2019      10.730  11.297   3.773  1.00 71.07     0.011 A 
HETATM   15  CAJ   D T2019      10.047  11.992   2.781  1.00 68.91    -0.002 A 
HETATM   16  CAL   D T2019       8.673  11.826   2.653  1.00 67.71     0.001 A 
BRANCH  14  17
HETATM   17  CAS   D T2019      12.246  11.445   3.877  1.00 74.21     0.277 C 
BRANCH  17  18
HETATM   18  NBG   D T2019      12.788  10.193   3.244  1.00 81.39     0.146 N 
HETATM   19  CAQ   D T2019      13.524   9.350   4.222  1.00 83.32     0.286 C 
HETATM   20  CAO   D T2019      14.957   9.901   4.423  1.00 86.22     0.285 C 
HETATM   21  NBF   D T2019      15.739   9.958   3.144  1.00 86.50     0.141 N 
HETATM   22  CAP   D T2019      15.044  10.644   2.007  1.00 84.69     0.285 C 
HETATM   23  CAR   D T2019      13.505  10.432   1.941  1.00 81.90     0.286 C 
BRANCH  21  24
HETATM   24  CAN   D T2019      16.289   8.621   2.780  1.00 86.80     0.251 C 
HETATM   25  CAA   D T2019      17.113   8.025   3.947  1.00 86.31     0.037 C 
ENDBRANCH  21  24
ENDBRANCH  17  18
ENDBRANCH  14  17
ENDBRANCH   1  11
BRANCH  10  26
HETATM   26  CBE   D T2019       2.163  12.648   0.347  1.00 69.45     0.127 C 
HETATM   27  CAB   D T2019       2.499  13.543  -0.856  1.00 70.81     0.031 C 
BRANCH  26  28
HETATM   28  CAZ   D T2019       0.959  13.179   1.136  1.00 71.15    -0.000 A 
HETATM   29  CAG   D T2019       1.147  13.633   2.464  1.00 70.34    -0.002 A 
HETATM   30  CAD   D T2019       0.073  14.109   3.227  1.00 69.22    -0.000 A 
HETATM   31  CAC   D T2019      -1.192  14.123   2.626  1.00 70.75    -0.000 A 
HETATM   32  CAE   D T2019      -1.385  13.677   1.303  1.00 71.52    -0.000 A 
HETATM   33  CAH   D T2019      -0.317  13.188   0.546  1.00 71.18    -0.002 A 
ENDBRANCH  26  28
ENDBRANCH  10  26
TORSDOF 6
