REMARK  7 active torsions:
REMARK  status: ('A' for Active; 'I' for Inactive)
REMARK    1  A    between atoms: NBF_3  and  CAN_4 
REMARK    2  A    between atoms: NBG_8  and  CAS_9 
REMARK    3  A    between atoms: CAS_9  and  CAX_10 
REMARK    4  A    between atoms: CAY_15  and  CBA_16 
REMARK    5  A    between atoms: C6_24  and  NAV_25 
REMARK    6  A    between atoms: NAV_25  and  CBE_26 
REMARK    7  A    between atoms: CBE_26  and  CAZ_28 
ROOT
HETATM    1  CBA   D T2020       9.773   4.065  -5.899  1.00 64.64     0.083 A 
HETATM    2  NAW   D T2020       8.892   4.757  -6.659  1.00 63.25    -0.227 NA
HETATM    3  CAM   D T2020       9.430   2.763  -5.968  1.00 62.00     0.025 A 
HETATM    4  C5    D T2020       8.347   2.635  -6.771  1.00 62.03     0.073 A 
HETATM    5  C4    D T2020       8.022   3.924  -7.207  1.00 59.95     0.167 A 
HETATM    6  N3    D T2020       6.972   4.129  -7.997  1.00 57.93    -0.205 NA
HETATM    7  C2    D T2020       6.215   3.105  -8.413  1.00 61.01     0.202 A 
HETATM    8  N1    D T2020       6.470   1.846  -8.049  1.00 63.52    -0.205 NA
HETATM    9  C6    D T2020       7.529   1.549  -7.211  1.00 63.62     0.163 A 
ENDROOT
BRANCH   1  10
HETATM   10  CAY   D T2020      10.818   4.673  -5.156  1.00 68.44     0.018 A 
HETATM   11  CAK   D T2020      11.065   6.065  -5.302  1.00 70.41     0.001 A 
HETATM   12  CAI   D T2020      12.067   6.726  -4.574  1.00 71.58    -0.002 A 
HETATM   13  CAX   D T2020      12.847   6.003  -3.660  1.00 74.24     0.011 A 
HETATM   14  CAJ   D T2020      12.602   4.623  -3.483  1.00 71.57    -0.002 A 
HETATM   15  CAL   D T2020      11.593   3.963  -4.210  1.00 69.56     0.001 A 
BRANCH  13  16
HETATM   16  CAS   D T2020      13.950   6.735  -2.843  1.00 78.58     0.277 C 
BRANCH  16  17
HETATM   17  NBG   D T2020      13.280   7.517  -1.762  1.00 84.90     0.146 N 
HETATM   18  CAQ   D T2020      13.962   8.807  -1.408  1.00 87.68     0.286 C 
HETATM   19  CAO   D T2020      15.124   8.642  -0.379  1.00 89.39     0.285 C 
HETATM   20  NBF   D T2020      14.745   7.781   0.776  1.00 89.89     0.141 N 
HETATM   21  CAP   D T2020      14.190   6.468   0.355  1.00 88.17     0.285 C 
HETATM   22  CAR   D T2020      12.968   6.658  -0.574  1.00 86.12     0.286 C 
BRANCH  20  23
HETATM   23  CAN   D T2020      13.824   8.483   1.717  1.00 90.94     0.251 C 
HETATM   24  CAA   D T2020      14.611   8.985   2.947  1.00 90.26     0.037 C 
ENDBRANCH  20  23
ENDBRANCH  16  17
ENDBRANCH  13  16
ENDBRANCH   1  10
BRANCH   9  25
HETATM   25  NAV   D T2020       7.786   0.255  -6.833  1.00 62.88    -0.250 NA
BRANCH  25  26
HETATM   26  CBE   D T2020       6.816  -0.852  -7.037  1.00 65.43     0.127 C 
HETATM   27  CAB   D T2020       7.131  -2.092  -6.186  1.00 64.69     0.031 C 
BRANCH  26  28
HETATM   28  CAZ   D T2020       6.736  -1.251  -8.528  1.00 67.00    -0.000 A 
HETATM   29  CAG   D T2020       7.637  -0.705  -9.468  1.00 67.63    -0.002 A 
HETATM   30  CAD   D T2020       7.570  -1.037 -10.834  1.00 69.11    -0.000 A 
HETATM   31  CAC   D T2020       6.581  -1.946 -11.257  1.00 70.24    -0.000 A 
HETATM   32  CAE   D T2020       5.681  -2.500 -10.321  1.00 69.05    -0.000 A 
HETATM   33  CAH   D T2020       5.749  -2.156  -8.959  1.00 67.19    -0.002 A 
ENDBRANCH  26  28
ENDBRANCH  25  26
ENDBRANCH   9  25
TORSDOF 7
