REMARK  7 active torsions:
REMARK  status: ('A' for Active; 'I' for Inactive)
REMARK    1  A    between atoms: NBF_3  and  CAN_4 
REMARK    2  A    between atoms: NBG_8  and  CAS_9 
REMARK    3  A    between atoms: CAS_9  and  CAX_10 
REMARK    4  A    between atoms: CAY_15  and  CBA_16 
REMARK    5  A    between atoms: C6_24  and  NAV_25 
REMARK    6  A    between atoms: NAV_25  and  CBE_26 
REMARK    7  A    between atoms: CBE_26  and  CAZ_28 
ROOT
HETATM    1  CBA   D T2020       5.047   5.578  -9.110  1.00 64.64     0.083 A 
HETATM    2  NAW   D T2020       4.063   5.014  -9.849  1.00 63.25    -0.227 NA
HETATM    3  CAM   D T2020       5.677   4.584  -8.452  1.00 62.00     0.025 A 
HETATM    4  C5    D T2020       5.099   3.404  -8.778  1.00 62.03     0.073 A 
HETATM    5  C4    D T2020       4.070   3.701  -9.678  1.00 59.95     0.167 A 
HETATM    6  N3    D T2020       3.292   2.738 -10.163  1.00 57.93    -0.205 NA
HETATM    7  C2    D T2020       3.489   1.458  -9.819  1.00 61.01     0.202 A 
HETATM    8  N1    D T2020       4.458   1.096  -8.975  1.00 63.52    -0.205 NA
HETATM    9  C6    D T2020       5.297   2.037  -8.409  1.00 63.62     0.163 A 
ENDROOT
BRANCH   1  10
HETATM   10  CAY   D T2020       5.287   6.975  -9.056  1.00 68.44     0.018 A 
HETATM   11  CAK   D T2020       4.561   7.846  -9.913  1.00 70.41     0.001 A 
HETATM   12  CAI   D T2020       4.735   9.238  -9.885  1.00 71.58    -0.002 A 
HETATM   13  CAX   D T2020       5.644   9.802  -8.977  1.00 74.24     0.011 A 
HETATM   14  CAJ   D T2020       6.358   8.955  -8.100  1.00 71.57    -0.002 A 
HETATM   15  CAL   D T2020       6.177   7.559  -8.126  1.00 69.56     0.001 A 
BRANCH  13  16
HETATM   16  CAS   D T2020       5.831  11.346  -8.935  1.00 78.58     0.277 C 
BRANCH  16  17
HETATM   17  NBG   D T2020       4.652  11.933  -8.231  1.00 84.90     0.146 N 
HETATM   18  CAQ   D T2020       4.232  13.285  -8.735  1.00 87.68     0.286 C 
HETATM   19  CAO   D T2020       5.028  14.467  -8.100  1.00 89.39     0.285 C 
HETATM   20  NBF   D T2020       5.147  14.345  -6.619  1.00 89.89     0.141 N 
HETATM   21  CAP   D T2020       5.684  13.026  -6.194  1.00 88.17     0.285 C 
HETATM   22  CAR   D T2020       4.813  11.872  -6.743  1.00 86.12     0.286 C 
BRANCH  20  23
HETATM   23  CAN   D T2020       3.861  14.655  -5.929  1.00 90.94     0.251 C 
HETATM   24  CAA   D T2020       3.907  16.085  -5.349  1.00 90.26     0.037 C 
ENDBRANCH  20  23
ENDBRANCH  16  17
ENDBRANCH  13  16
ENDBRANCH   1  10
BRANCH   9  25
HETATM   25  NAV   D T2020       6.289   1.664  -7.537  1.00 62.88    -0.250 NA
BRANCH  25  26
HETATM   26  CBE   D T2020       6.353   0.313  -6.921  1.00 65.43     0.127 C 
HETATM   27  CAB   D T2020       7.277   0.255  -5.694  1.00 64.69     0.031 C 
BRANCH  26  28
HETATM   28  CAZ   D T2020       6.793  -0.748  -7.955  1.00 67.00    -0.000 A 
HETATM   29  CAG   D T2020       7.232  -0.361  -9.240  1.00 67.63    -0.002 A 
HETATM   30  CAD   D T2020       7.618  -1.310 -10.205  1.00 69.11    -0.000 A 
HETATM   31  CAC   D T2020       7.570  -2.675  -9.862  1.00 70.24    -0.000 A 
HETATM   32  CAE   D T2020       7.138  -3.067  -8.576  1.00 69.05    -0.000 A 
HETATM   33  CAH   D T2020       6.746  -2.114  -7.621  1.00 67.19    -0.002 A 
ENDBRANCH  26  28
ENDBRANCH  25  26
ENDBRANCH   9  25
TORSDOF 7
