REMARK  7 active torsions:
REMARK  status: ('A' for Active; 'I' for Inactive)
REMARK    1  A    between atoms: NBF_3  and  CAN_4 
REMARK    2  A    between atoms: NBG_8  and  CAS_9 
REMARK    3  A    between atoms: CAS_9  and  CAX_10 
REMARK    4  A    between atoms: CAY_15  and  CBA_16 
REMARK    5  A    between atoms: C6_24  and  NAV_25 
REMARK    6  A    between atoms: NAV_25  and  CBE_26 
REMARK    7  A    between atoms: CBE_26  and  CAZ_28 
ROOT
HETATM    1  CBA   D T2020     -11.435   0.639  -7.240  1.00 64.64     0.083 A 
HETATM    2  NAW   D T2020     -10.194   0.199  -7.555  1.00 63.25    -0.227 NA
HETATM    3  CAM   D T2020     -11.290   1.752  -6.493  1.00 62.00     0.025 A 
HETATM    4  C5    D T2020      -9.970   2.014  -6.345  1.00 62.03     0.073 A 
HETATM    5  C4    D T2020      -9.286   1.010  -7.037  1.00 59.95     0.167 A 
HETATM    6  N3    D T2020      -7.957   0.980  -7.052  1.00 57.93    -0.205 NA
HETATM    7  C2    D T2020      -7.241   1.923  -6.424  1.00 61.01     0.202 A 
HETATM    8  N1    D T2020      -7.823   2.919  -5.753  1.00 63.52    -0.205 NA
HETATM    9  C6    D T2020      -9.200   3.011  -5.669  1.00 63.62     0.163 A 
ENDROOT
BRANCH   1  10
HETATM   10  CAY   D T2020     -12.627  -0.027  -7.626  1.00 68.44     0.018 A 
HETATM   11  CAK   D T2020     -12.556  -1.142  -8.503  1.00 70.41     0.001 A 
HETATM   12  CAI   D T2020     -13.698  -1.856  -8.898  1.00 71.58    -0.002 A 
HETATM   13  CAX   D T2020     -14.955  -1.474  -8.407  1.00 74.24     0.011 A 
HETATM   14  CAJ   D T2020     -15.044  -0.383  -7.515  1.00 71.57    -0.002 A 
HETATM   15  CAL   D T2020     -13.897   0.329  -7.116  1.00 69.56     0.001 A 
BRANCH  13  16
HETATM   16  CAS   D T2020     -16.221  -2.272  -8.833  1.00 78.58     0.277 C 
BRANCH  16  17
HETATM   17  NBG   D T2020     -16.234  -3.556  -8.071  1.00 84.90     0.146 N 
HETATM   18  CAQ   D T2020     -16.819  -4.720  -8.819  1.00 87.68     0.286 C 
HETATM   19  CAO   D T2020     -18.374  -4.809  -8.727  1.00 89.39     0.285 C 
HETATM   20  NBF   D T2020     -18.876  -4.625  -7.336  1.00 89.89     0.141 N 
HETATM   21  CAP   D T2020     -18.354  -3.389  -6.697  1.00 88.17     0.285 C 
HETATM   22  CAR   D T2020     -16.807  -3.377  -6.698  1.00 86.12     0.286 C 
BRANCH  20  23
HETATM   23  CAN   D T2020     -18.617  -5.825  -6.487  1.00 90.94     0.251 C 
HETATM   24  CAA   D T2020     -19.909  -6.658  -6.347  1.00 90.26     0.037 C 
ENDBRANCH  20  23
ENDBRANCH  16  17
ENDBRANCH  13  16
ENDBRANCH   1  10
BRANCH   9  25
HETATM   25  NAV   D T2020      -9.797   4.033  -4.974  1.00 62.88    -0.250 NA
BRANCH  25  26
HETATM   26  CBE   D T2020      -9.050   4.917  -4.042  1.00 65.43     0.127 C 
HETATM   27  CAB   D T2020      -9.968   5.695  -3.086  1.00 64.69     0.031 C 
BRANCH  26  28
HETATM   28  CAZ   D T2020      -8.148   5.904  -4.816  1.00 67.00    -0.000 A 
HETATM   29  CAG   D T2020      -8.230   6.001  -6.223  1.00 67.63    -0.002 A 
HETATM   30  CAD   D T2020      -7.405   6.877  -6.952  1.00 69.11    -0.000 A 
HETATM   31  CAC   D T2020      -6.487   7.679  -6.246  1.00 70.24    -0.000 A 
HETATM   32  CAE   D T2020      -6.405   7.591  -4.839  1.00 69.05    -0.000 A 
HETATM   33  CAH   D T2020      -7.226   6.706  -4.120  1.00 67.19    -0.002 A 
ENDBRANCH  26  28
ENDBRANCH  25  26
ENDBRANCH   9  25
TORSDOF 7
