REMARK  6 active torsions:
REMARK  status: ('A' for Active; 'I' for Inactive)
REMARK    1  A    between atoms: CBC_7  and  CAO_8 
REMARK    2  A    between atoms: CAO_8  and  OAT_9 
REMARK    3  A    between atoms: OAT_9  and  CAY_10 
REMARK    4  A    between atoms: CAX_12  and  OAS_13 
REMARK    5  A    between atoms: C6_21  and  NAR_22 
REMARK    6  A    between atoms: NAR_22  and  CAW_23 
ROOT
HETATM    1  CAY   D T3015       4.584   6.366  -9.169  1.00 27.56     0.118 A 
HETATM    2  CAI   D T3015       3.831   5.488  -9.929  1.00 26.69     0.045 A 
HETATM    3  CAX   D T3015       5.489   5.881  -8.243  1.00 27.38     0.117 A 
HETATM    4  CAJ   D T3015       5.627   4.498  -8.077  1.00 26.81     0.031 A 
HETATM    5  C5    D T3015       4.861   3.615  -8.842  1.00 27.31     0.056 A 
HETATM    6  C4    D T3015       3.970   4.119  -9.777  1.00 26.48     0.088 A 
HETATM    7  N3    D T3015       3.217   3.265 -10.513  1.00 27.11    -0.224 NA
HETATM    8  C2    D T3015       3.335   1.949 -10.363  1.00 26.78     0.200 A 
HETATM    9  N1    D T3015       4.203   1.430  -9.503  1.00 25.67    -0.205 NA
HETATM   10  C6    D T3015       4.972   2.209  -8.722  1.00 27.45     0.166 A 
ENDROOT
BRANCH   1  11
HETATM   11  OAT   D T3015       4.483   7.724  -9.270  1.00 28.48    -0.329 OA
BRANCH  11  12
HETATM   12  CAO   D T3015       3.782   8.249 -10.381  1.00 34.10     0.149 C 
BRANCH  12  13
HETATM   13  CBC   D T3015       3.817   9.750 -10.128  1.00 37.94     0.034 C 
HETATM   14  CAK   D T3015       2.772  10.454 -10.974  1.00 39.50     0.038 C 
HETATM   15  CAM   D T3015       2.723  11.947 -10.637  1.00 42.92     0.250 C 
HETATM   16  NBD   D T3015       4.050  12.610 -10.697  1.00 44.82     0.139 N 
HETATM   17  CAB   D T3015       3.911  13.790  -9.818  1.00 45.53     0.285 C 
HETATM   18  CAN   D T3015       5.217  11.837 -10.166  1.00 44.14     0.250 C 
HETATM   19  CAL   D T3015       5.172  10.346 -10.512  1.00 40.98     0.038 C 
ENDBRANCH  12  13
ENDBRANCH  11  12
ENDBRANCH   1  11
BRANCH   3  20
HETATM   20  OAS   D T3015       6.196   6.834  -7.527  1.00 27.35    -0.326 OA
HETATM   21  CAA   D T3015       7.284   6.408  -6.675  1.00 26.97     0.181 C 
ENDBRANCH   3  20
BRANCH  10  22
HETATM   22  NAR   D T3015       5.884   1.611  -7.789  1.00 28.41    -0.224 NA
BRANCH  22  23
HETATM   23  CAW   D T3015       6.127   0.219  -7.787  1.00 30.70     0.110 A 
HETATM   24  CAF   D T3015       5.864  -0.541  -6.659  1.00 30.33     0.022 A 
HETATM   25  CAE   D T3015       6.140  -1.904  -6.674  1.00 31.71     0.008 A 
HETATM   26  CAU   D T3015       6.672  -2.475  -7.832  1.00 32.99     0.037 A 
HETATM   27 BR     D T3015       7.093  -4.324  -8.053  1.00 41.09    -0.049 Br
HETATM   28  CAH   D T3015       6.933  -1.710  -8.936  1.00 31.01     0.038 A 
HETATM   29  CAV   D T3015       6.664  -0.385  -8.914  1.00 32.00     0.158 A 
HETATM   30  FAC   D T3015       6.966   0.272 -10.037  1.00 33.90    -0.203 F 
ENDBRANCH  22  23
ENDBRANCH  10  22
TORSDOF 6
