REMARK  6 active torsions:
REMARK  status: ('A' for Active; 'I' for Inactive)
REMARK    1  A    between atoms: CBC_7  and  CAO_8 
REMARK    2  A    between atoms: CAO_8  and  OAT_9 
REMARK    3  A    between atoms: OAT_9  and  CAY_10 
REMARK    4  A    between atoms: CAX_12  and  OAS_13 
REMARK    5  A    between atoms: C6_21  and  NAR_22 
REMARK    6  A    between atoms: NAR_22  and  CAW_23 
ROOT
HETATM    1  CAY   D T3015       9.913   4.878  -5.569  1.00 27.56     0.118 A 
HETATM    2  CAI   D T3015       9.000   5.250  -6.541  1.00 26.69     0.045 A 
HETATM    3  CAX   D T3015      10.026   3.551  -5.196  1.00 27.38     0.117 A 
HETATM    4  CAJ   D T3015       9.204   2.594  -5.802  1.00 26.81     0.031 A 
HETATM    5  C5    D T3015       8.280   2.975  -6.779  1.00 27.31     0.056 A 
HETATM    6  C4    D T3015       8.190   4.307  -7.151  1.00 26.48     0.088 A 
HETATM    7  N3    D T3015       7.286   4.681  -8.090  1.00 27.11    -0.224 NA
HETATM    8  C2    D T3015       6.496   3.784  -8.672  1.00 26.78     0.200 A 
HETATM    9  N1    D T3015       6.578   2.494  -8.365  1.00 25.67    -0.205 NA
HETATM   10  C6    D T3015       7.434   2.045  -7.431  1.00 27.45     0.166 A 
ENDROOT
BRANCH   1  11
HETATM   11  OAT   D T3015      10.729   5.764  -4.927  1.00 28.48    -0.329 OA
BRANCH  11  12
HETATM   12  CAO   D T3015      10.837   7.067  -5.468  1.00 34.10     0.149 C 
BRANCH  12  13
HETATM   13  CBC   D T3015      11.754   7.772  -4.478  1.00 37.94     0.034 C 
HETATM   14  CAK   D T3015      11.658   9.277  -4.646  1.00 39.50     0.038 C 
HETATM   15  CAM   D T3015      12.487   9.993  -3.576  1.00 42.92     0.250 C 
HETATM   16  NBD   D T3015      13.891   9.514  -3.497  1.00 44.82     0.139 N 
HETATM   17  CAB   D T3015      14.316   9.850  -2.122  1.00 45.53     0.285 C 
HETATM   18  CAN   D T3015      14.112   8.041  -3.648  1.00 44.14     0.250 C 
HETATM   19  CAL   D T3015      13.218   7.394  -4.710  1.00 40.98     0.038 C 
ENDBRANCH  12  13
ENDBRANCH  11  12
ENDBRANCH   1  11
BRANCH   3  20
HETATM   20  OAS   D T3015      10.965   3.273  -4.214  1.00 27.35    -0.326 OA
HETATM   21  CAA   D T3015      11.268   1.894  -3.903  1.00 26.97     0.181 C 
ENDBRANCH   3  20
BRANCH  10  22
HETATM   22  NAR   D T3015       7.479   0.647  -7.113  1.00 28.41    -0.224 NA
BRANCH  22  23
HETATM   23  CAW   D T3015       6.769  -0.306  -7.878  1.00 30.70     0.110 A 
HETATM   24  CAF   D T3015       5.806  -1.108  -7.288  1.00 30.33     0.022 A 
HETATM   25  CAE   D T3015       5.143  -2.057  -8.058  1.00 31.71     0.008 A 
HETATM   26  CAU   D T3015       5.462  -2.174  -9.413  1.00 32.99     0.037 A 
HETATM   27 BR     D T3015       4.648  -3.396 -10.633  1.00 41.09    -0.049 Br
HETATM   28  CAH   D T3015       6.421  -1.379  -9.979  1.00 31.01     0.038 A 
HETATM   29  CAV   D T3015       7.063  -0.460  -9.225  1.00 32.00     0.158 A 
HETATM   30  FAC   D T3015       7.988   0.256  -9.870  1.00 33.90    -0.203 F 
ENDBRANCH  22  23
ENDBRANCH  10  22
TORSDOF 6
