REMARK  6 active torsions:
REMARK  status: ('A' for Active; 'I' for Inactive)
REMARK    1  A    between atoms: CBC_7  and  CAO_8 
REMARK    2  A    between atoms: CAO_8  and  OAT_9 
REMARK    3  A    between atoms: OAT_9  and  CAY_10 
REMARK    4  A    between atoms: CAX_12  and  OAS_13 
REMARK    5  A    between atoms: C6_21  and  NAR_22 
REMARK    6  A    between atoms: NAR_22  and  CAW_23 
ROOT
HETATM    1  CAY   D T3015       7.412  10.277   3.845  1.00 27.56     0.118 A 
HETATM    2  CAI   D T3015       6.335   9.579   4.364  1.00 26.69     0.045 A 
HETATM    3  CAX   D T3015       7.207  11.273   2.907  1.00 27.38     0.117 A 
HETATM    4  CAJ   D T3015       5.904  11.559   2.483  1.00 26.81     0.031 A 
HETATM    5  C5    D T3015       4.820  10.848   3.005  1.00 27.31     0.056 A 
HETATM    6  C4    D T3015       5.044   9.864   3.955  1.00 26.48     0.088 A 
HETATM    7  N3    D T3015       3.995   9.165   4.454  1.00 27.11    -0.224 NA
HETATM    8  C2    D T3015       2.752   9.423   4.059  1.00 26.78     0.200 A 
HETATM    9  N1    D T3015       2.497  10.382   3.176  1.00 25.67    -0.205 NA
HETATM   10  C6    D T3015       3.483  11.107   2.619  1.00 27.45     0.166 A 
ENDROOT
BRANCH   1  11
HETATM   11  OAT   D T3015       8.707  10.034   4.203  1.00 28.48    -0.329 OA
BRANCH  11  12
HETATM   12  CAO   D T3015       8.932   9.228   5.344  1.00 34.10     0.149 C 
BRANCH  12  13
HETATM   13  CBC   D T3015      10.450   9.123   5.393  1.00 37.94     0.034 C 
HETATM   14  CAK   D T3015      10.873   7.971   6.285  1.00 39.50     0.038 C 
HETATM   15  CAM   D T3015      12.393   7.788   6.246  1.00 42.92     0.250 C 
HETATM   16  NBD   D T3015      13.146   9.036   6.527  1.00 44.82     0.139 N 
HETATM   17  CAB   D T3015      14.462   8.823   5.890  1.00 45.53     0.285 C 
HETATM   18  CAN   D T3015      12.603  10.301   5.938  1.00 44.14     0.250 C 
HETATM   19  CAL   D T3015      11.075  10.390   5.981  1.00 40.98     0.038 C 
ENDBRANCH  12  13
ENDBRANCH  11  12
ENDBRANCH   1  11
BRANCH   3  20
HETATM   20  OAS   D T3015       8.345  11.916   2.444  1.00 27.35    -0.326 OA
HETATM   21  CAA   D T3015       8.198  13.083   1.603  1.00 26.97     0.181 C 
ENDBRANCH   3  20
BRANCH  10  22
HETATM   22  NAR   D T3015       3.169  12.121   1.653  1.00 28.41    -0.224 NA
BRANCH  22  23
HETATM   23  CAW   D T3015       1.834  12.504   1.395  1.00 30.70     0.110 A 
HETATM   24  CAF   D T3015       1.298  12.377   0.124  1.00 30.33     0.022 A 
HETATM   25  CAE   D T3015      -0.010  12.789  -0.109  1.00 31.71     0.008 A 
HETATM   26  CAU   D T3015      -0.753  13.316   0.949  1.00 32.99     0.037 A 
HETATM   27 BR     D T3015      -2.564  13.911   0.832  1.00 41.09    -0.049 Br
HETATM   28  CAH   D T3015      -0.207  13.442   2.197  1.00 31.01     0.038 A 
HETATM   29  CAV   D T3015       1.065  13.042   2.416  1.00 32.00     0.158 A 
HETATM   30  FAC   D T3015       1.506  13.218   3.665  1.00 33.90    -0.203 F 
ENDBRANCH  22  23
ENDBRANCH  10  22
TORSDOF 6
