REMARK  6 active torsions:
REMARK  status: ('A' for Active; 'I' for Inactive)
REMARK    1  A    between atoms: CBC_7  and  CAO_8 
REMARK    2  A    between atoms: CAO_8  and  OAT_9 
REMARK    3  A    between atoms: OAT_9  and  CAY_10 
REMARK    4  A    between atoms: CAX_12  and  OAS_13 
REMARK    5  A    between atoms: C6_21  and  NAR_22 
REMARK    6  A    between atoms: NAR_22  and  CAW_23 
ROOT
HETATM    1  CAY   D T3015     -11.453  -0.465  -7.655  1.00 27.56     0.118 A 
HETATM    2  CAI   D T3015     -10.096  -0.532  -7.923  1.00 26.69     0.045 A 
HETATM    3  CAX   D T3015     -11.958   0.568  -6.887  1.00 27.38     0.117 A 
HETATM    4  CAJ   D T3015     -11.084   1.536  -6.377  1.00 26.81     0.031 A 
HETATM    5  C5    D T3015      -9.715   1.462  -6.645  1.00 27.31     0.056 A 
HETATM    6  C4    D T3015      -9.229   0.427  -7.430  1.00 26.48     0.088 A 
HETATM    7  N3    D T3015      -7.899   0.346  -7.681  1.00 27.11    -0.224 NA
HETATM    8  C2    D T3015      -7.057   1.256  -7.201  1.00 26.78     0.200 A 
HETATM    9  N1    D T3015      -7.491   2.279  -6.474  1.00 25.67    -0.205 NA
HETATM   10  C6    D T3015      -8.791   2.421  -6.164  1.00 27.45     0.166 A 
ENDROOT
BRANCH   1  11
HETATM   11  OAT   D T3015     -12.354  -1.386  -8.107  1.00 28.48    -0.329 OA
BRANCH  11  12
HETATM   12  CAO   D T3015     -11.924  -2.287  -9.109  1.00 34.10     0.149 C 
BRANCH  12  13
HETATM   13  CBC   D T3015     -13.140  -3.182  -9.308  1.00 37.94     0.034 C 
HETATM   14  CAK   D T3015     -12.747  -4.458 -10.028  1.00 39.50     0.038 C 
HETATM   15  CAM   D T3015     -13.941  -5.412 -10.126  1.00 42.92     0.250 C 
HETATM   16  NBD   D T3015     -15.156  -4.780 -10.701  1.00 44.82     0.139 N 
HETATM   17  CAB   D T3015     -16.274  -5.598 -10.186  1.00 45.53     0.285 C 
HETATM   18  CAN   D T3015     -15.449  -3.373 -10.283  1.00 44.14     0.250 C 
HETATM   19  CAL   D T3015     -14.199  -2.495 -10.171  1.00 40.98     0.038 C 
ENDBRANCH  12  13
ENDBRANCH  11  12
ENDBRANCH   1  11
BRANCH   3  20
HETATM   20  OAS   D T3015     -13.328   0.552  -6.670  1.00 27.35    -0.326 OA
HETATM   21  CAA   D T3015     -13.951   1.690  -6.033  1.00 26.97     0.181 C 
ENDBRANCH   3  20
BRANCH  10  22
HETATM   22  NAR   D T3015      -9.220   3.529  -5.360  1.00 28.41    -0.224 NA
BRANCH  22  23
HETATM   23  CAW   D T3015      -8.338   4.581  -5.025  1.00 30.70     0.110 A 
HETATM   24  CAF   D T3015      -8.056   4.870  -3.700  1.00 30.33     0.022 A 
HETATM   25  CAE   D T3015      -7.207   5.930  -3.398  1.00 31.71     0.008 A 
HETATM   26  CAU   D T3015      -6.653   6.673  -4.443  1.00 32.99     0.037 A 
HETATM   27 BR     D T3015      -5.451   8.142  -4.230  1.00 41.09    -0.049 Br
HETATM   28  CAH   D T3015      -6.946   6.379  -5.746  1.00 31.01     0.038 A 
HETATM   29  CAV   D T3015      -7.774   5.349  -6.033  1.00 32.00     0.158 A 
HETATM   30  FAC   D T3015      -8.004   5.153  -7.333  1.00 33.90    -0.203 F 
ENDBRANCH  22  23
ENDBRANCH  10  22
TORSDOF 6
