REMARK  6 active torsions:
REMARK  status: ('A' for Active; 'I' for Inactive)
REMARK       I    between atoms: N1_1  and  C25_25 
REMARK    1  A    between atoms: C3_3  and  N5_5 
REMARK       I    between atoms: N5_5  and  C6_6 
REMARK    2  A    between atoms: C6_6  and  C7_7 
REMARK    3  A    between atoms: N17_17  and  C24_24 
REMARK    4  A    between atoms: C25_25  and  C20_32 
REMARK    5  A    between atoms: C27_27  and  C20_32 
REMARK    6  A    between atoms: C20_32  and  O34_35 
ROOT
HETATM    1  N1    D T1390      26.175  36.703  24.373  1.00 51.21    -0.308 N 
HETATM    2  N2    D T1390      27.904  39.428  26.148  1.00 51.21    -0.149 NA
HETATM    3  C3    D T1390      25.805  39.818  26.357  1.00 51.21     0.186 A 
HETATM    4  N4    D T1390      27.048  40.278  26.668  1.00 51.21    -0.129 NA
HETATM    5  C13   D T1390      27.307  38.442  25.513  1.00 51.21     0.104 A 
HETATM    6  C14   D T1390      25.979  38.624  25.605  1.00 51.21     0.055 A 
HETATM    7  C15   D T1390      25.159  37.588  24.928  1.00 51.21     0.136 A 
HETATM    8  C16   D T1390      27.523  37.189  24.722  1.00 51.21     0.152 A 
HETATM    9  C25   D T1390      25.994  35.527  23.583  1.00 51.21     0.266 C 
HETATM   10  O26   D T1390      26.951  34.878  23.173  1.00 51.21    -0.269 OA
ENDROOT
BRANCH   3  11
HETATM   11  N5    D T1390      24.732  40.539  26.792  1.00 51.21    -0.187 NA
HETATM   12  C6    D T1390      23.386  40.272  26.620  1.00 51.21     0.281 C 
HETATM   13  O8    D T1390      22.965  39.287  26.040  1.00 51.21    -0.265 OA
BRANCH  12  14
HETATM   14  C7    D T1390      22.397  41.273  27.197  1.00 51.21     0.058 A 
HETATM   15  C9    D T1390      22.786  42.443  27.893  1.00 51.21     0.006 A 
HETATM   16  C10   D T1390      21.820  43.346  28.416  1.00 51.21     0.011 A 
HETATM   17  C24   D T1390      20.396  43.126  28.266  1.00 51.21     0.037 A 
HETATM   18  C11   D T1390      20.027  41.922  27.548  1.00 51.21     0.011 A 
HETATM   19  C12   D T1390      20.991  41.030  27.032  1.00 51.21     0.006 A 
BRANCH  17  20
HETATM   20  N17   D T1390      19.350  44.015  28.791  1.00 51.21    -0.248 NA
HETATM   21  C18   D T1390      18.127  44.113  27.893  1.00 51.21     0.112 C 
HETATM   22  C19   D T1390      17.801  45.468  27.186  1.00 51.21     0.268 C 
HETATM   23  N20   D T1390      18.072  46.650  28.024  1.00 51.21     0.142 N 
HETATM   24  C21   D T1390      19.473  46.641  28.458  1.00 51.21     0.268 C 
HETATM   25  C23   D T1390      17.748  47.891  27.314  1.00 51.21     0.285 C 
HETATM   26  C22   D T1390      19.861  45.354  29.244  1.00 51.21     0.112 C 
ENDBRANCH  17  20
ENDBRANCH  12  14
ENDBRANCH   3  11
BRANCH   9  27
HETATM   27  C20   D T1390      24.493  35.094  23.202  1.00 51.21     0.216 C 
BRANCH  27  28
HETATM   28  C27   D T1390      23.878  36.159  22.263  1.00 51.21     0.014 A 
HETATM   29  C28   D T1390      22.587  36.700  22.501  1.00 51.21    -0.001 A 
HETATM   30  C31   D T1390      22.049  37.689  21.644  1.00 51.21    -0.000 A 
HETATM   31  C35   D T1390      22.796  38.158  20.529  1.00 51.21    -0.000 A 
HETATM   32  C33   D T1390      24.085  37.624  20.280  1.00 51.21    -0.000 A 
HETATM   33  C29   D T1390      24.616  36.640  21.135  1.00 51.21    -0.001 A 
ENDBRANCH  27  28
BRANCH  27  34
HETATM   34  O34   D T1390      24.581  33.790  22.556  1.00 51.21    -0.340 OA
HETATM   35  C36   D T1390      23.337  33.133  22.341  1.00 51.21     0.175 C 
ENDBRANCH  27  34
ENDBRANCH   9  27
TORSDOF 6
