REMARK  6 active torsions:
REMARK  status: ('A' for Active; 'I' for Inactive)
REMARK       I    between atoms: N1_1  and  C25_25 
REMARK    1  A    between atoms: C3_3  and  N5_5 
REMARK       I    between atoms: N5_5  and  C6_6 
REMARK    2  A    between atoms: C6_6  and  C7_7 
REMARK    3  A    between atoms: N17_17  and  C24_24 
REMARK    4  A    between atoms: C25_25  and  C20_32 
REMARK    5  A    between atoms: C27_27  and  C20_32 
REMARK    6  A    between atoms: C20_32  and  O34_35 
ROOT
HETATM    1  N1    D T1390       0.806   6.019   8.314  1.00 51.21    -0.308 N 
HETATM    2  N2    D T1390       0.008   2.873  10.055  1.00 51.21    -0.149 NA
HETATM    3  C3    D T1390       2.117   3.175  10.305  1.00 51.21     0.186 A 
HETATM    4  N4    D T1390       1.082   2.339  10.592  1.00 51.21    -0.129 NA
HETATM    5  C13   D T1390       0.270   4.002   9.432  1.00 51.21     0.104 A 
HETATM    6  C14   D T1390       1.584   4.255   9.550  1.00 51.21     0.055 A 
HETATM    7  C15   D T1390       2.042   5.503   8.889  1.00 51.21     0.136 A 
HETATM    8  C16   D T1390      -0.321   5.125   8.636  1.00 51.21     0.152 A 
HETATM    9  C25   D T1390       0.616   7.196   7.527  1.00 51.21     0.266 C 
HETATM   10  O26   D T1390      -0.491   7.507   7.098  1.00 51.21    -0.269 OA
ENDROOT
BRANCH   3  11
HETATM   11  N5    D T1390       3.356   2.833  10.762  1.00 51.21    -0.187 NA
HETATM   12  C6    D T1390       4.549   3.518  10.616  1.00 51.21     0.281 C 
HETATM   13  O8    D T1390       4.643   4.589  10.044  1.00 51.21    -0.265 OA
BRANCH  12  14
HETATM   14  C7    D T1390       5.795   2.883  11.213  1.00 51.21     0.058 A 
HETATM   15  C9    D T1390       5.789   1.645  11.901  1.00 51.21     0.006 A 
HETATM   16  C10   D T1390       6.983   1.096  12.443  1.00 51.21     0.011 A 
HETATM   17  C24   D T1390       8.264   1.761  12.321  1.00 51.21     0.037 A 
HETATM   18  C11   D T1390       8.241   3.025  11.611  1.00 51.21     0.011 A 
HETATM   19  C12   D T1390       7.052   3.564  11.076  1.00 51.21     0.006 A 
BRANCH  17  20
HETATM   20  N17   D T1390       9.530   1.251  12.867  1.00 51.21    -0.248 NA
HETATM   21  C18   D T1390      10.736   1.555  11.994  1.00 51.21     0.112 C 
HETATM   22  C19   D T1390      11.492   0.380  11.293  1.00 51.21     0.268 C 
HETATM   23  N20   D T1390      11.598  -0.831  12.126  1.00 51.21     0.142 N 
HETATM   24  C21   D T1390      10.260  -1.274  12.532  1.00 51.21     0.268 C 
HETATM   25  C23   D T1390      12.316  -1.899  11.423  1.00 51.21     0.285 C 
HETATM   26  C22   D T1390       9.466  -0.184  13.310  1.00 51.21     0.112 C 
ENDBRANCH  17  20
ENDBRANCH  12  14
ENDBRANCH   3  11
BRANCH   9  27
HETATM   27  C20   D T1390       1.906   8.089   7.176  1.00 51.21     0.216 C 
BRANCH  27  28
HETATM   28  C27   D T1390       2.847   7.283   6.250  1.00 51.21     0.014 A 
HETATM   29  C28   D T1390       4.239   7.183   6.513  1.00 51.21    -0.001 A 
HETATM   30  C31   D T1390       5.081   6.423   5.667  1.00 51.21    -0.000 A 
HETATM   31  C35   D T1390       4.545   5.747   4.538  1.00 51.21    -0.000 A 
HETATM   32  C33   D T1390       3.158   5.841   4.263  1.00 51.21    -0.000 A 
HETATM   33  C29   D T1390       2.324   6.598   5.107  1.00 51.21    -0.001 A 
ENDBRANCH  27  28
BRANCH  27  34
HETATM   34  O34   D T1390       1.417   9.301   6.528  1.00 51.21    -0.340 OA
HETATM   35  C36   D T1390       2.389  10.323   6.338  1.00 51.21     0.175 C 
ENDBRANCH  27  34
ENDBRANCH   9  27
TORSDOF 6
