REMARK  6 active torsions:
REMARK  status: ('A' for Active; 'I' for Inactive)
REMARK       I    between atoms: N1_1  and  C25_25 
REMARK    1  A    between atoms: C3_3  and  N5_5 
REMARK       I    between atoms: N5_5  and  C6_6 
REMARK    2  A    between atoms: C6_6  and  C7_7 
REMARK    3  A    between atoms: N17_17  and  C24_24 
REMARK    4  A    between atoms: C25_25  and  C20_32 
REMARK    5  A    between atoms: C27_27  and  C20_32 
REMARK    6  A    between atoms: C20_32  and  O34_35 
ROOT
HETATM    1  N1    D T1390       8.532   0.415  -7.340  1.00 51.21    -0.308 N 
HETATM    2  N2    D T1390       7.399   3.611  -8.779  1.00 51.21    -0.149 NA
HETATM    3  C3    D T1390       8.815   4.115  -7.248  1.00 51.21     0.186 A 
HETATM    4  N4    D T1390       7.980   4.632  -8.191  1.00 51.21    -0.129 NA
HETATM    5  C13   D T1390       7.794   2.458  -8.283  1.00 51.21     0.104 A 
HETATM    6  C14   D T1390       8.690   2.700  -7.312  1.00 51.21     0.055 A 
HETATM    7  C15   D T1390       9.230   1.489  -6.645  1.00 51.21     0.136 A 
HETATM    8  C16   D T1390       7.638   0.971  -8.374  1.00 51.21     0.152 A 
HETATM    9  C25   D T1390       8.619  -0.993  -7.117  1.00 51.21     0.266 C 
HETATM   10  O26   D T1390       7.960  -1.788  -7.779  1.00 51.21    -0.269 OA
ENDROOT
BRANCH   3  11
HETATM   11  N5    D T1390       9.542   4.988  -6.493  1.00 51.21    -0.187 NA
HETATM   12  C6    D T1390      10.459   4.711  -5.497  1.00 51.21     0.281 C 
HETATM   13  O8    D T1390      10.767   3.581  -5.162  1.00 51.21    -0.265 OA
BRANCH  12  14
HETATM   14  C7    D T1390      11.109   5.895  -4.797  1.00 51.21     0.058 A 
HETATM   15  C9    D T1390      10.823   7.244  -5.117  1.00 51.21     0.006 A 
HETATM   16  C10   D T1390      11.461   8.316  -4.434  1.00 51.21     0.011 A 
HETATM   17  C24   D T1390      12.427   8.092  -3.378  1.00 51.21     0.037 A 
HETATM   18  C11   D T1390      12.699   6.702  -3.070  1.00 51.21     0.011 A 
HETATM   19  C12   D T1390      12.062   5.643  -3.753  1.00 51.21     0.006 A 
BRANCH  17  20
HETATM   20  N17   D T1390      13.127   9.155  -2.642  1.00 51.21    -0.248 NA
HETATM   21  C18   D T1390      13.370   8.823  -1.178  1.00 51.21     0.112 C 
HETATM   22  C19   D T1390      12.634   9.646  -0.072  1.00 51.21     0.268 C 
HETATM   23  N20   D T1390      12.513  11.081  -0.388  1.00 51.21     0.142 N 
HETATM   24  C21   D T1390      11.826  11.251  -1.673  1.00 51.21     0.268 C 
HETATM   25  C23   D T1390      11.818  11.804   0.681  1.00 51.21     0.285 C 
HETATM   26  C22   D T1390      12.542  10.524  -2.850  1.00 51.21     0.112 C 
ENDBRANCH  17  20
ENDBRANCH  12  14
ENDBRANCH   3  11
BRANCH   9  27
HETATM   27  C20   D T1390       9.577  -1.514  -5.935  1.00 51.21     0.216 C 
BRANCH  27  28
HETATM   28  C27   D T1390       9.007  -1.050  -4.574  1.00 51.21     0.014 A 
HETATM   29  C28   D T1390       9.830  -0.425  -3.600  1.00 51.21    -0.001 A 
HETATM   30  C31   D T1390       9.287   0.013  -2.369  1.00 51.21    -0.000 A 
HETATM   31  C35   D T1390       7.905  -0.165  -2.089  1.00 51.21    -0.000 A 
HETATM   32  C33   D T1390       7.074  -0.790  -3.052  1.00 51.21    -0.000 A 
HETATM   33  C29   D T1390       7.618  -1.224  -4.275  1.00 51.21    -0.001 A 
ENDBRANCH  27  28
BRANCH  27  34
HETATM   34  O34   D T1390       9.619  -2.968  -6.036  1.00 51.21    -0.340 OA
HETATM   35  C36   D T1390      10.590  -3.607  -5.215  1.00 51.21     0.175 C 
ENDBRANCH  27  34
ENDBRANCH   9  27
TORSDOF 6
