REMARK  6 active torsions:
REMARK  status: ('A' for Active; 'I' for Inactive)
REMARK       I    between atoms: N1_1  and  C25_25 
REMARK    1  A    between atoms: C3_3  and  N5_5 
REMARK       I    between atoms: N5_5  and  C6_6 
REMARK    2  A    between atoms: C6_6  and  C7_7 
REMARK    3  A    between atoms: N17_17  and  C24_24 
REMARK    4  A    between atoms: C25_25  and  C20_32 
REMARK    5  A    between atoms: C27_27  and  C20_32 
REMARK    6  A    between atoms: C20_32  and  O34_35 
ROOT
HETATM    1  N1    D T1390     -10.059   3.861  -5.914  1.00 51.21    -0.308 N 
HETATM    2  N2    D T1390      -7.891   1.442  -7.650  1.00 51.21    -0.149 NA
HETATM    3  C3    D T1390      -9.859   0.590  -7.656  1.00 51.21     0.186 A 
HETATM    4  N4    D T1390      -8.569   0.387  -8.041  1.00 51.21    -0.129 NA
HETATM    5  C13   D T1390      -8.648   2.323  -7.031  1.00 51.21     0.104 A 
HETATM    6  C14   D T1390      -9.905   1.850  -6.999  1.00 51.21     0.055 A 
HETATM    7  C15   D T1390     -10.887   2.734  -6.323  1.00 51.21     0.136 A 
HETATM    8  C16   D T1390      -8.663   3.653  -6.343  1.00 51.21     0.152 A 
HETATM    9  C25   D T1390     -10.444   5.030  -5.188  1.00 51.21     0.266 C 
HETATM   10  O26   D T1390      -9.630   5.902  -4.903  1.00 51.21    -0.269 OA
ENDROOT
BRANCH   3  11
HETATM   11  N5    D T1390     -10.771  -0.380  -7.952  1.00 51.21    -0.187 NA
HETATM   12  C6    D T1390     -12.128  -0.399  -7.685  1.00 51.21     0.281 C 
HETATM   13  O8    D T1390     -12.718   0.515  -7.136  1.00 51.21    -0.265 OA
BRANCH  12  14
HETATM   14  C7    D T1390     -12.906  -1.634  -8.111  1.00 51.21     0.058 A 
HETATM   15  C9    D T1390     -12.314  -2.744  -8.761  1.00 51.21     0.006 A 
HETATM   16  C10   D T1390     -13.087  -3.875  -9.142  1.00 51.21     0.011 A 
HETATM   17  C24   D T1390     -14.511  -3.959  -8.887  1.00 51.21     0.037 A 
HETATM   18  C11   D T1390     -15.090  -2.809  -8.219  1.00 51.21     0.011 A 
HETATM   19  C12   D T1390     -14.316  -1.690  -7.844  1.00 51.21     0.006 A 
BRANCH  17  20
HETATM   20  N17   D T1390     -15.366  -5.093  -9.264  1.00 51.21    -0.248 NA
HETATM   21  C18   D T1390     -16.472  -5.382  -8.262  1.00 51.21     0.112 C 
HETATM   22  C19   D T1390     -16.439  -6.713  -7.445  1.00 51.21     0.268 C 
HETATM   23  N20   D T1390     -15.969  -7.872  -8.225  1.00 51.21     0.142 N 
HETATM   24  C21   D T1390     -14.638  -7.594  -8.775  1.00 51.21     0.268 C 
HETATM   25  C23   D T1390     -15.959  -9.092  -7.413  1.00 51.21     0.285 C 
HETATM   26  C22   D T1390     -14.601  -6.321  -9.672  1.00 51.21     0.112 C 
ENDBRANCH  17  20
ENDBRANCH  12  14
ENDBRANCH   3  11
BRANCH   9  27
HETATM   27  C20   D T1390     -11.974   5.155  -4.711  1.00 51.21     0.216 C 
BRANCH  27  28
HETATM   28  C27   D T1390     -12.271   4.062  -3.657  1.00 51.21     0.014 A 
HETATM   29  C28   D T1390     -13.422   3.236  -3.750  1.00 51.21    -0.001 A 
HETATM   30  C31   D T1390     -13.666   2.226  -2.790  1.00 51.21    -0.000 A 
HETATM   31  C35   D T1390     -12.759   2.023  -1.714  1.00 51.21    -0.000 A 
HETATM   32  C33   D T1390     -11.608   2.842  -1.609  1.00 51.21    -0.000 A 
HETATM   33  C29   D T1390     -11.369   3.846  -2.567  1.00 51.21    -0.001 A 
ENDBRANCH  27  28
BRANCH  27  34
HETATM   34  O34   D T1390     -12.135   6.495  -4.159  1.00 51.21    -0.340 OA
HETATM   35  C36   D T1390     -13.477   6.881  -3.883  1.00 51.21     0.175 C 
ENDBRANCH  27  34
ENDBRANCH   9  27
TORSDOF 6
