REMARK  6 active torsions:
REMARK  status: ('A' for Active; 'I' for Inactive)
REMARK    1  A    between atoms: NBF_3  and  CAN_4 
REMARK    2  A    between atoms: NBG_8  and  CAS_9 
REMARK    3  A    between atoms: CAS_9  and  CAX_10 
REMARK    4  A    between atoms: CAY_15  and  CBA_16 
REMARK    5  A    between atoms: NAV_25  and  CBE_26 
REMARK    6  A    between atoms: CBE_26  and  CAZ_28 
ROOT
HETATM    1  CBA   D T2021     -11.088   0.497  -7.043  1.00 48.38     0.083 A 
HETATM    2  NAW   D T2021      -9.850   0.207  -7.414  1.00 46.46    -0.227 NA
HETATM    3  CAM   D T2021     -11.065   1.554  -6.244  1.00 46.71     0.025 A 
HETATM    4  C5    D T2021      -9.810   1.933  -6.103  1.00 46.87     0.073 A 
HETATM    5  C4    D T2021      -9.041   1.082  -6.848  1.00 46.80     0.167 A 
HETATM    6  N3    D T2021      -7.720   1.249  -6.873  1.00 47.13    -0.205 NA
HETATM    7  C2    D T2021      -7.152   2.223  -6.193  1.00 45.54     0.202 A 
HETATM    8  N1    D T2021      -7.863   3.059  -5.471  1.00 45.28    -0.205 NA
HETATM    9  C6    D T2021      -9.185   2.943  -5.408  1.00 46.82     0.163 A 
HETATM   10  NAV   D T2021      -9.871   3.796  -4.677  1.00 49.40    -0.250 NA
ENDROOT
BRANCH   1  11
HETATM   11  CAY   D T2021     -12.223  -0.187  -7.440  1.00 49.55     0.018 A 
HETATM   12  CAK   D T2021     -12.118  -1.220  -8.350  1.00 50.94     0.001 A 
HETATM   13  CAI   D T2021     -13.249  -1.905  -8.763  1.00 52.56    -0.002 A 
HETATM   14  CAX   D T2021     -14.487  -1.555  -8.268  1.00 54.24     0.011 A 
HETATM   15  CAJ   D T2021     -14.592  -0.524  -7.357  1.00 51.77    -0.002 A 
HETATM   16  CAL   D T2021     -13.463   0.165  -6.948  1.00 50.18     0.001 A 
BRANCH  14  17
HETATM   17  CAS   D T2021     -15.728  -2.317  -8.717  1.00 59.34     0.277 C 
BRANCH  17  18
HETATM   18  NBG   D T2021     -15.798  -3.569  -7.957  1.00 64.50     0.146 N 
HETATM   19  CAQ   D T2021     -16.236  -4.706  -8.772  1.00 65.86     0.286 C 
HETATM   20  CAO   D T2021     -17.732  -4.613  -9.057  1.00 66.93     0.285 C 
HETATM   21  NBF   D T2021     -18.481  -4.550  -7.801  1.00 66.06     0.141 N 
HETATM   22  CAP   D T2021     -18.080  -3.335  -7.097  1.00 65.57     0.285 C 
HETATM   23  CAR   D T2021     -16.605  -3.430  -6.740  1.00 65.21     0.286 C 
BRANCH  21  24
HETATM   24  CAN   D T2021     -18.186  -5.728  -6.981  1.00 64.26     0.251 C 
HETATM   25  CAA   D T2021     -18.827  -6.961  -7.614  1.00 61.05     0.037 C 
ENDBRANCH  21  24
ENDBRANCH  17  18
ENDBRANCH  14  17
ENDBRANCH   1  11
BRANCH  10  26
HETATM   26  CBE   D T2021      -9.134   4.685  -3.785  1.00 51.58     0.127 C 
HETATM   27  CAB   D T2021     -10.108   5.555  -3.010  1.00 54.00     0.031 C 
BRANCH  26  28
HETATM   28  CAZ   D T2021      -8.221   5.575  -4.596  1.00 51.45    -0.000 A 
HETATM   29  CAG   D T2021      -8.079   5.362  -5.951  1.00 51.44    -0.002 A 
HETATM   30  CAD   D T2021      -7.240   6.177  -6.690  1.00 51.45    -0.000 A 
HETATM   31  CAC   D T2021      -6.546   7.201  -6.074  1.00 51.82    -0.000 A 
HETATM   32  CAE   D T2021      -6.692   7.415  -4.719  1.00 50.90    -0.000 A 
HETATM   33  CAH   D T2021      -7.530   6.601  -3.977  1.00 51.08    -0.002 A 
ENDBRANCH  26  28
ENDBRANCH  10  26
TORSDOF 6
