REMARK  6 active torsions:
REMARK  status: ('A' for Active; 'I' for Inactive)
REMARK    1  A    between atoms: NBF_3  and  CAN_4 
REMARK    2  A    between atoms: NBG_8  and  CAS_9 
REMARK    3  A    between atoms: CAS_9  and  CAX_10 
REMARK    4  A    between atoms: CAY_15  and  CBA_16 
REMARK    5  A    between atoms: NAV_25  and  CBE_26 
REMARK    6  A    between atoms: CBE_26  and  CAZ_28 
ROOT
HETATM    1  CBA   D T2021       6.545  10.797   3.202  1.00 48.38     0.083 A 
HETATM    2  NAW   D T2021       5.713   9.964   3.809  1.00 46.46    -0.227 NA
HETATM    3  CAM   D T2021       5.864  11.543   2.345  1.00 46.71     0.025 A 
HETATM    4  C5    D T2021       4.597  11.182   2.404  1.00 46.87     0.073 A 
HETATM    5  C4    D T2021       4.501  10.184   3.335  1.00 46.80     0.167 A 
HETATM    6  N3    D T2021       3.313   9.637   3.584  1.00 47.13    -0.205 NA
HETATM    7  C2    D T2021       2.236  10.048   2.948  1.00 45.54     0.202 A 
HETATM    8  N1    D T2021       2.295  11.006   2.051  1.00 45.28    -0.205 NA
HETATM    9  C6    D T2021       3.452  11.591   1.761  1.00 46.82     0.163 A 
HETATM   10  NAV   D T2021       3.479  12.548   0.858  1.00 49.40    -0.250 NA
ENDROOT
BRANCH   1  11
HETATM   11  CAY   D T2021       7.906  10.880   3.437  1.00 49.55     0.018 A 
HETATM   12  CAK   D T2021       8.480  10.104   4.425  1.00 50.94     0.001 A 
HETATM   13  CAI   D T2021       9.839  10.187   4.677  1.00 52.56    -0.002 A 
HETATM   14  CAX   D T2021      10.626  11.050   3.944  1.00 54.24     0.011 A 
HETATM   15  CAJ   D T2021      10.052  11.825   2.956  1.00 51.77    -0.002 A 
HETATM   16  CAL   D T2021       8.692  11.747   2.707  1.00 50.18     0.001 A 
BRANCH  14  17
HETATM   17  CAS   D T2021      12.123  11.132   4.217  1.00 59.34     0.277 C 
BRANCH  17  18
HETATM   18  NBG   D T2021      12.774  10.001   3.550  1.00 64.50     0.146 N 
HETATM   19  CAQ   D T2021      13.846   9.407   4.354  1.00 65.86     0.286 C 
HETATM   20  CAO   D T2021      15.074  10.313   4.358  1.00 66.93     0.285 C 
HETATM   21  NBF   D T2021      15.523  10.559   2.988  1.00 66.06     0.141 N 
HETATM   22  CAP   D T2021      14.452  11.256   2.280  1.00 65.57     0.285 C 
HETATM   23  CAR   D T2021      13.235  10.347   2.202  1.00 65.21     0.286 C 
BRANCH  21  24
HETATM   24  CAN   D T2021      15.823   9.289   2.321  1.00 64.26     0.251 C 
HETATM   25  CAA   D T2021      17.096   8.691   2.918  1.00 61.05     0.037 C 
ENDBRANCH  21  24
ENDBRANCH  17  18
ENDBRANCH  14  17
ENDBRANCH   1  11
BRANCH  10  26
HETATM   26  CBE   D T2021       2.283  12.767   0.051  1.00 51.58     0.127 C 
HETATM   27  CAB   D T2021       2.537  13.883  -0.948  1.00 54.00     0.031 C 
BRANCH  26  28
HETATM   28  CAZ   D T2021       1.131  13.162   0.945  1.00 51.45    -0.000 A 
HETATM   29  CAG   D T2021       1.281  13.123   2.316  1.00 51.44    -0.002 A 
HETATM   30  CAD   D T2021       0.223  13.483   3.131  1.00 51.45    -0.000 A 
HETATM   31  CAC   D T2021      -0.979  13.880   2.578  1.00 51.82    -0.000 A 
HETATM   32  CAE   D T2021      -1.125  13.922   1.206  1.00 50.90    -0.000 A 
HETATM   33  CAH   D T2021      -0.070  13.562   0.387  1.00 51.08    -0.002 A 
ENDBRANCH  26  28
ENDBRANCH  10  26
TORSDOF 6
