REMARK  6 active torsions:
REMARK  status: ('A' for Active; 'I' for Inactive)
REMARK    1  A    between atoms: NBF_3  and  CAN_4 
REMARK    2  A    between atoms: NBG_8  and  CAS_9 
REMARK    3  A    between atoms: CAS_9  and  CAX_10 
REMARK    4  A    between atoms: CAY_15  and  CBA_16 
REMARK    5  A    between atoms: NAV_25  and  CBE_26 
REMARK    6  A    between atoms: CBE_26  and  CAZ_28 
ROOT
HETATM    1  CBA   D T2017       9.195   4.428  -5.740  1.00 70.26     0.083 A 
HETATM    2  NAW   D T2017       8.369   5.064  -6.572  1.00 69.72    -0.227 NA
HETATM    3  CAM   D T2017       8.936   3.120  -5.782  1.00 68.99     0.025 A 
HETATM    4  C5    D T2017       7.943   2.925  -6.643  1.00 68.84     0.073 A 
HETATM    5  C4    D T2017       7.582   4.161  -7.146  1.00 68.77     0.167 A 
HETATM    6  N3    D T2017       6.591   4.241  -8.044  1.00 68.59    -0.205 NA
HETATM    7  C2    D T2017       5.963   3.149  -8.449  1.00 69.65     0.202 A 
HETATM    8  N1    D T2017       6.284   1.949  -7.987  1.00 69.48    -0.205 NA
HETATM    9  C6    D T2017       7.265   1.801  -7.087  1.00 69.36     0.163 A 
HETATM   10  NAV   D T2017       7.584   0.595  -6.627  1.00 70.92    -0.250 NA
ENDROOT
BRANCH   1  11
HETATM   11  CAY   D T2017      10.169   5.032  -4.954  1.00 71.68     0.018 A 
HETATM   12  CAK   D T2017      10.520   6.358  -5.178  1.00 73.27     0.001 A 
HETATM   13  CAI   D T2017      11.495   6.962  -4.391  1.00 74.78    -0.002 A 
HETATM   14  CAX   D T2017      12.119   6.240  -3.382  1.00 77.32     0.011 A 
HETATM   15  CAJ   D T2017      11.769   4.913  -3.158  1.00 74.40    -0.002 A 
HETATM   16  CAL   D T2017      10.794   4.309  -3.943  1.00 72.43     0.001 A 
BRANCH  14  17
HETATM   17  CAS   D T2017      13.192   6.905  -2.516  1.00 81.79     0.277 C 
BRANCH  17  18
HETATM   18  NBG   D T2017      12.555   7.846  -1.584  1.00 86.70     0.146 N 
HETATM   19  CAQ   D T2017      13.308   9.109  -1.570  1.00 87.93     0.286 C 
HETATM   20  CAO   D T2017      14.743   8.843  -1.110  1.00 90.08     0.285 C 
HETATM   21  NBF   D T2017      14.725   8.265   0.242  1.00 91.56     0.141 N 
HETATM   22  CAP   D T2017      13.975   7.002   0.225  1.00 90.83     0.285 C 
HETATM   23  CAR   D T2017      12.540   7.267  -0.234  1.00 89.55     0.286 C 
BRANCH  21  24
HETATM   24  CAN   D T2017      14.080   9.206   1.168  1.00 91.78     0.251 C 
HETATM   25  CAA   D T2017      15.145   9.890   2.028  1.00 91.26     0.037 C 
ENDBRANCH  21  24
ENDBRANCH  17  18
ENDBRANCH  14  17
ENDBRANCH   1  11
BRANCH  10  26
HETATM   26  CBE   D T2017       6.596  -0.493  -6.670  1.00 72.13     0.127 C 
HETATM   27  CAB   D T2017       7.041  -1.624  -5.742  1.00 72.05     0.031 C 
BRANCH  26  28
HETATM   28  CAZ   D T2017       6.481  -1.022  -8.101  1.00 72.85    -0.000 A 
HETATM   29  CAG   D T2017       5.289  -1.586  -8.540  1.00 73.42    -0.002 A 
HETATM   30  CAD   D T2017       5.184  -2.067  -9.840  1.00 73.74    -0.000 A 
HETATM   31  CAC   D T2017       6.272  -1.983 -10.701  1.00 73.88    -0.000 A 
HETATM   32  CAE   D T2017       7.464  -1.419 -10.263  1.00 74.18    -0.000 A 
HETATM   33  CAH   D T2017       7.568  -0.938  -8.963  1.00 74.00    -0.002 A 
ENDBRANCH  26  28
ENDBRANCH  10  26
TORSDOF 6
