REMARK  6 active torsions:
REMARK  status: ('A' for Active; 'I' for Inactive)
REMARK    1  A    between atoms: NBF_3  and  CAN_4 
REMARK    2  A    between atoms: NBG_8  and  CAS_9 
REMARK    3  A    between atoms: CAS_9  and  CAX_10 
REMARK    4  A    between atoms: CAY_15  and  CBA_16 
REMARK    5  A    between atoms: NAV_25  and  CBE_26 
REMARK    6  A    between atoms: CBE_26  and  CAZ_28 
ROOT
HETATM    1  CBA   D T2017     -10.804  -0.017  -7.213  1.00 70.26     0.083 A 
HETATM    2  NAW   D T2017      -9.562  -0.369  -7.548  1.00 69.72    -0.227 NA
HETATM    3  CAM   D T2017     -10.761   1.113  -6.506  1.00 68.99     0.025 A 
HETATM    4  C5    D T2017      -9.489   1.480  -6.392  1.00 68.84     0.073 A 
HETATM    5  C4    D T2017      -8.725   0.537  -7.054  1.00 68.77     0.167 A 
HETATM    6  N3    D T2017      -7.394   0.676  -7.088  1.00 68.59    -0.205 NA
HETATM    7  C2    D T2017      -6.811   1.705  -6.493  1.00 69.65     0.202 A 
HETATM    8  N1    D T2017      -7.513   2.626  -5.850  1.00 69.48    -0.205 NA
HETATM    9  C6    D T2017      -8.849   2.545  -5.780  1.00 69.36     0.163 A 
HETATM   10  NAV   D T2017      -9.549   3.472  -5.132  1.00 70.92    -0.250 NA
ENDROOT
BRANCH   1  11
HETATM   11  CAY   D T2017     -11.958  -0.716  -7.547  1.00 71.68     0.018 A 
HETATM   12  CAK   D T2017     -11.905  -1.732  -8.494  1.00 73.27     0.001 A 
HETATM   13  CAI   D T2017     -13.060  -2.431  -8.828  1.00 74.78    -0.002 A 
HETATM   14  CAX   D T2017     -14.267  -2.113  -8.216  1.00 77.32     0.011 A 
HETATM   15  CAJ   D T2017     -14.319  -1.097  -7.268  1.00 74.40    -0.002 A 
HETATM   16  CAL   D T2017     -13.165  -0.399  -6.934  1.00 72.43     0.001 A 
BRANCH  14  17
HETATM   17  CAS   D T2017     -15.537  -2.883  -8.583  1.00 81.79     0.277 C 
BRANCH  17  18
HETATM   18  NBG   D T2017     -15.480  -4.231  -7.997  1.00 86.70     0.146 N 
HETATM   19  CAQ   D T2017     -15.896  -5.220  -9.002  1.00 87.93     0.286 C 
HETATM   20  CAO   D T2017     -17.331  -4.928  -9.444  1.00 90.08     0.285 C 
HETATM   21  NBF   D T2017     -18.228  -5.000  -8.281  1.00 91.56     0.141 N 
HETATM   22  CAP   D T2017     -17.813  -4.007  -7.281  1.00 90.83     0.285 C 
HETATM   23  CAR   D T2017     -16.378  -4.300  -6.836  1.00 89.55     0.286 C 
BRANCH  21  24
HETATM   24  CAN   D T2017     -18.161  -6.346  -7.694  1.00 91.78     0.251 C 
HETATM   25  CAA   D T2017     -19.419  -7.131  -8.069  1.00 91.26     0.037 C 
ENDBRANCH  21  24
ENDBRANCH  17  18
ENDBRANCH  14  17
ENDBRANCH   1  11
BRANCH  10  26
HETATM   26  CBE   D T2017      -8.908   4.279  -4.084  1.00 72.13     0.127 C 
HETATM   27  CAB   D T2017      -9.983   4.961  -3.236  1.00 72.05     0.031 C 
BRANCH  26  28
HETATM   28  CAZ   D T2017      -8.016   5.341  -4.729  1.00 72.85    -0.000 A 
HETATM   29  CAG   D T2017      -6.900   5.817  -4.051  1.00 73.42    -0.002 A 
HETATM   30  CAD   D T2017      -6.090   6.783  -4.637  1.00 73.74    -0.000 A 
HETATM   31  CAC   D T2017      -6.395   7.271  -5.902  1.00 73.88    -0.000 A 
HETATM   32  CAE   D T2017      -7.511   6.795  -6.580  1.00 74.18    -0.000 A 
HETATM   33  CAH   D T2017      -8.322   5.830  -5.994  1.00 74.00    -0.002 A 
ENDBRANCH  26  28
ENDBRANCH  10  26
TORSDOF 6
