REMARK  6 active torsions:
REMARK  status: ('A' for Active; 'I' for Inactive)
REMARK    1  A    between atoms: NBF_3  and  CAN_4 
REMARK    2  A    between atoms: NBG_8  and  CAS_9 
REMARK    3  A    between atoms: CAS_9  and  CAX_10 
REMARK    4  A    between atoms: CAY_15  and  CBA_16 
REMARK    5  A    between atoms: NAV_25  and  CBE_26 
REMARK    6  A    between atoms: CBE_26  and  CAZ_28 
ROOT
HETATM    1  CBA   D T2017       6.620  10.243   3.476  1.00 70.26     0.083 A 
HETATM    2  NAW   D T2017       5.808   9.357   4.057  1.00 69.72    -0.227 NA
HETATM    3  CAM   D T2017       5.897  11.055   2.703  1.00 68.99     0.025 A 
HETATM    4  C5    D T2017       4.624  10.684   2.791  1.00 68.84     0.073 A 
HETATM    5  C4    D T2017       4.567   9.604   3.652  1.00 68.77     0.167 A 
HETATM    6  N3    D T2017       3.383   9.035   3.915  1.00 68.59    -0.205 NA
HETATM    7  C2    D T2017       2.276   9.500   3.357  1.00 69.65     0.202 A 
HETATM    8  N1    D T2017       2.297  10.533   2.527  1.00 69.48    -0.205 NA
HETATM    9  C6    D T2017       3.448  11.146   2.223  1.00 69.36     0.163 A 
HETATM   10  NAV   D T2017       3.463  12.183   1.390  1.00 70.92    -0.250 NA
ENDROOT
BRANCH   1  11
HETATM   11  CAY   D T2017       7.997  10.309   3.650  1.00 71.68     0.018 A 
HETATM   12  CAK   D T2017       8.604   9.582   4.668  1.00 73.27     0.001 A 
HETATM   13  CAI   D T2017       9.983   9.649   4.841  1.00 74.78    -0.002 A 
HETATM   14  CAX   D T2017      10.752  10.442   3.998  1.00 77.32     0.011 A 
HETATM   15  CAJ   D T2017      10.144  11.168   2.981  1.00 74.40    -0.002 A 
HETATM   16  CAL   D T2017       8.767  11.101   2.806  1.00 72.43     0.001 A 
BRANCH  14  17
HETATM   17  CAS   D T2017      12.268  10.514   4.190  1.00 81.79     0.277 C 
BRANCH  17  18
HETATM   18  NBG   D T2017      12.881   9.258   3.731  1.00 86.70     0.146 N 
HETATM   19  CAQ   D T2017      13.872   8.807   4.718  1.00 87.93     0.286 C 
HETATM   20  CAO   D T2017      14.963   9.868   4.870  1.00 90.08     0.285 C 
HETATM   21  NBF   D T2017      15.623  10.084   3.573  1.00 91.56     0.141 N 
HETATM   22  CAP   D T2017      14.630  10.539   2.590  1.00 90.83     0.285 C 
HETATM   23  CAR   D T2017      13.540   9.477   2.435  1.00 89.55     0.286 C 
BRANCH  21  24
HETATM   24  CAN   D T2017      16.225   8.824   3.115  1.00 91.78     0.251 C 
HETATM   25  CAA   D T2017      17.741   8.878   3.317  1.00 91.26     0.037 C 
ENDBRANCH  21  24
ENDBRANCH  17  18
ENDBRANCH  14  17
ENDBRANCH   1  11
BRANCH  10  26
HETATM   26  CBE   D T2017       2.377  12.357   0.415  1.00 72.13     0.127 C 
HETATM   27  CAB   D T2017       2.815  13.349  -0.664  1.00 72.05     0.031 C 
BRANCH  26  28
HETATM   28  CAZ   D T2017       1.132  12.891   1.125  1.00 72.85    -0.000 A 
HETATM   29  CAG   D T2017      -0.131  12.602   0.624  1.00 73.42    -0.002 A 
HETATM   30  CAD   D T2017      -1.263  13.087   1.270  1.00 73.74    -0.000 A 
HETATM   31  CAC   D T2017      -1.130  13.861   2.417  1.00 73.88    -0.000 A 
HETATM   32  CAE   D T2017       0.133  14.150   2.917  1.00 74.18    -0.000 A 
HETATM   33  CAH   D T2017       1.265  13.665   2.272  1.00 74.00    -0.002 A 
ENDBRANCH  26  28
ENDBRANCH  10  26
TORSDOF 6
