REMARK  7 active torsions:
REMARK  status: ('A' for Active; 'I' for Inactive)
REMARK    1  A    between atoms: NBB_6  and  CBA_7 
REMARK    2  A    between atoms: CAS_9  and  OAT_10 
REMARK    3  A    between atoms: CAL_14  and  NAH_15 
REMARK    4  A    between atoms: NAH_15  and  C2_16 
REMARK    5  A    between atoms: C4_22  and  NAE_23 
REMARK    6  A    between atoms: NAE_23  and  CAJ_24 
REMARK    7  A    between atoms: CAP_29  and  CAO_30 
REMARK       I    between atoms: CAO_30  and  NAN_32 
ROOT
HETATM    1  C2    D T1686      -9.363   0.445  -6.920  1.00 17.61     0.752 A 
HETATM    2  N3    D T1686      -9.912   1.504  -6.311  1.00 18.51    -0.039 NA
HETATM    3  N1    D T1686      -8.038   0.361  -6.997  1.00 16.90    -0.057 NA
HETATM    4  C6    D T1686      -7.263   1.310  -6.484  1.00 16.74     0.133 A 
HETATM    5  C5    D T1686      -7.799   2.407  -5.833  1.00 17.83     0.114 A 
HETATM    6 CL5    D T1686      -6.754   3.625  -5.153  1.00 20.30    -0.077 Cl
HETATM    7  C4    D T1686      -9.188   2.491  -5.724  1.00 18.56     0.193 A 
ENDROOT
BRANCH   1   8
HETATM    8  NAH   D T1686     -10.108  -0.547  -7.445  1.00 18.72    -0.057 NA
BRANCH   8   9
HETATM    9  CAL   D T1686     -11.452  -0.583  -7.496  1.00 18.22     0.122 A 
HETATM   10  CAS   D T1686     -12.024  -1.141  -8.634  1.00 20.44     0.114 A 
HETATM   11  CAY   D T1686     -13.426  -1.208  -8.758  1.00 18.94     0.043 A 
HETATM   12  CBA   D T1686     -14.271  -0.742  -7.744  1.00 20.47     0.058 A 
HETATM   13  CAX   D T1686     -13.692  -0.169  -6.601  1.00 17.39     0.019 A 
HETATM   14  CAR   D T1686     -12.298  -0.110  -6.477  1.00 18.28     0.023 A 
BRANCH  10  15
HETATM   15  OAT   D T1686     -11.165  -1.590  -9.588  1.00 18.42    -0.327 OA
HETATM   16  CAU   D T1686     -11.873  -2.220 -10.667  1.00 20.67     0.181 C 
ENDBRANCH  10  15
BRANCH  12  17
HETATM   17  NBB   D T1686     -15.703  -0.815  -7.855  1.00 22.32    -0.343 N 
HETATM   18  CBC   D T1686     -16.334  -1.451  -9.034  1.00 27.64     0.134 C 
HETATM   19  CBE   D T1686     -17.722  -0.852  -9.344  1.00 28.37     0.167 C 
HETATM   20  OBG   D T1686     -18.515  -0.807  -8.163  1.00 28.23    -0.350 OA
HETATM   21  CBF   D T1686     -17.973   0.125  -7.231  1.00 27.59     0.167 C 
HETATM   22  CBD   D T1686     -16.549  -0.229  -6.788  1.00 25.14     0.134 C 
ENDBRANCH  12  17
ENDBRANCH   8   9
ENDBRANCH   1   8
BRANCH   7  23
HETATM   23  NAE   D T1686      -9.762   3.531  -5.072  1.00 16.74    -0.225 NA
BRANCH  23  24
HETATM   24  CAJ   D T1686     -11.074   3.708  -4.789  1.00 21.60     0.088 A 
HETATM   25  CAQ   D T1686     -12.012   3.705  -5.843  1.00 19.37     0.019 A 
HETATM   26  CAW   D T1686     -13.364   3.884  -5.617  1.00 21.30     0.002 A 
HETATM   27  CAZ   D T1686     -13.815   4.123  -4.318  1.00 22.64     0.000 A 
HETATM   28  CAV   D T1686     -12.901   4.149  -3.267  1.00 23.23     0.006 A 
HETATM   29  CAP   D T1686     -11.540   3.939  -3.483  1.00 20.25     0.075 A 
BRANCH  29  30
HETATM   30  CAO   D T1686     -10.610   3.980  -2.264  1.00 17.59     0.276 C 
HETATM   31  OAI   D T1686      -9.429   4.262  -2.409  1.00 15.81    -0.266 OA
HETATM   32  NAN   D T1686     -11.171   3.666  -1.093  1.00 14.44    -0.232 NA
HETATM   33  CAM   D T1686     -10.338   3.728   0.116  1.00 17.53     0.155 C 
ENDBRANCH  29  30
ENDBRANCH  23  24
ENDBRANCH   7  23
TORSDOF 7
