REMARK  7 active torsions:
REMARK  status: ('A' for Active; 'I' for Inactive)
REMARK    1  A    between atoms: NBB_6  and  CBA_7 
REMARK    2  A    between atoms: CAS_9  and  OAT_10 
REMARK    3  A    between atoms: CAL_14  and  NAH_15 
REMARK    4  A    between atoms: NAH_15  and  C2_16 
REMARK    5  A    between atoms: C4_22  and  NAE_23 
REMARK    6  A    between atoms: NAE_23  and  CAJ_24 
REMARK    7  A    between atoms: CAP_29  and  CAO_30 
REMARK       I    between atoms: CAO_30  and  NAN_32 
ROOT
HETATM    1  C2    D T1686       3.840   3.858  -9.537  1.00 17.61     0.752 A 
HETATM    2  N3    D T1686       4.843   3.442  -8.752  1.00 18.51    -0.039 NA
HETATM    3  N1    D T1686       3.038   2.953 -10.091  1.00 16.90    -0.057 NA
HETATM    4  C6    D T1686       3.223   1.655  -9.877  1.00 16.74     0.133 A 
HETATM    5  C5    D T1686       4.239   1.195  -9.057  1.00 17.83     0.114 A 
HETATM    6 CL5    D T1686       4.442  -0.514  -8.781  1.00 20.30    -0.077 Cl
HETATM    7  C4    D T1686       5.070   2.139  -8.450  1.00 18.56     0.193 A 
ENDROOT
BRANCH   1   8
HETATM    8  NAH   D T1686       3.608   5.163  -9.773  1.00 18.72    -0.057 NA
BRANCH   8   9
HETATM    9  CAL   D T1686       4.356   6.191  -9.334  1.00 18.22     0.122 A 
HETATM   10  CAS   D T1686       4.511   7.270 -10.197  1.00 20.44     0.114 A 
HETATM   11  CAY   D T1686       5.286   8.381  -9.805  1.00 18.94     0.043 A 
HETATM   12  CBA   D T1686       5.894   8.438  -8.546  1.00 20.47     0.058 A 
HETATM   13  CAX   D T1686       5.746   7.342  -7.680  1.00 17.39     0.019 A 
HETATM   14  CAR   D T1686       4.970   6.244  -8.070  1.00 18.28     0.023 A 
BRANCH  10  15
HETATM   15  OAT   D T1686       3.894   7.177 -11.405  1.00 18.42    -0.327 OA
HETATM   16  CAU   D T1686       4.056   8.385 -12.165  1.00 20.67     0.181 C 
ENDBRANCH  10  15
BRANCH  12  17
HETATM   17  NBB   D T1686       6.678   9.570  -8.131  1.00 22.32    -0.343 N 
HETATM   18  CBC   D T1686       6.815  10.753  -9.012  1.00 27.64     0.134 C 
HETATM   19  CBE   D T1686       8.150  11.493  -8.787  1.00 28.37     0.167 C 
HETATM   20  OBG   D T1686       8.358  11.725  -7.398  1.00 28.23    -0.350 OA
HETATM   21  CBF   D T1686       8.563  10.494  -6.710  1.00 27.59     0.167 C 
HETATM   22  CBD   D T1686       7.369   9.539  -6.820  1.00 25.14     0.134 C 
ENDBRANCH  12  17
ENDBRANCH   8   9
ENDBRANCH   1   8
BRANCH   7  23
HETATM   23  NAE   D T1686       6.061   1.742  -7.617  1.00 16.74    -0.225 NA
BRANCH  23  24
HETATM   24  CAJ   D T1686       6.881   2.522  -6.874  1.00 21.60     0.088 A 
HETATM   25  CAQ   D T1686       7.661   3.507  -7.516  1.00 19.37     0.019 A 
HETATM   26  CAW   D T1686       8.519   4.332  -6.812  1.00 21.30     0.002 A 
HETATM   27  CAZ   D T1686       8.657   4.159  -5.435  1.00 22.64     0.000 A 
HETATM   28  CAV   D T1686       7.908   3.180  -4.786  1.00 23.23     0.006 A 
HETATM   29  CAP   D T1686       7.020   2.364  -5.484  1.00 20.25     0.075 A 
BRANCH  29  30
HETATM   30  CAO   D T1686       6.234   1.317  -4.685  1.00 17.59     0.276 C 
HETATM   31  OAI   D T1686       5.818   0.312  -5.243  1.00 15.81    -0.266 OA
HETATM   32  NAN   D T1686       6.030   1.602  -3.395  1.00 14.44    -0.232 NA
HETATM   33  CAM   D T1686       5.319   0.615  -2.570  1.00 17.53     0.155 C 
ENDBRANCH  29  30
ENDBRANCH  23  24
ENDBRANCH   7  23
TORSDOF 7
