REMARK  7 active torsions:
REMARK  status: ('A' for Active; 'I' for Inactive)
REMARK    1  A    between atoms: NBB_6  and  CBA_7 
REMARK    2  A    between atoms: CAS_9  and  OAT_10 
REMARK    3  A    between atoms: CAL_14  and  NAH_15 
REMARK    4  A    between atoms: NAH_15  and  C2_16 
REMARK    5  A    between atoms: C4_22  and  NAE_23 
REMARK    6  A    between atoms: NAE_23  and  CAJ_24 
REMARK    7  A    between atoms: CAP_29  and  CAO_30 
REMARK       I    between atoms: CAO_30  and  NAN_32 
ROOT
HETATM    1  C2    D T1686       7.848   4.186  -6.971  1.00 17.61     0.752 A 
HETATM    2  N3    D T1686       8.110   2.900  -6.705  1.00 18.51    -0.039 NA
HETATM    3  N1    D T1686       6.828   4.483  -7.771  1.00 16.90    -0.057 NA
HETATM    4  C6    D T1686       6.078   3.525  -8.305  1.00 16.74     0.133 A 
HETATM    5  C5    D T1686       6.314   2.189  -8.036  1.00 17.83     0.114 A 
HETATM    6 CL5    D T1686       5.298   0.957  -8.737  1.00 20.30    -0.077 Cl
HETATM    7  C4    D T1686       7.365   1.868  -7.176  1.00 18.56     0.193 A 
ENDROOT
BRANCH   1   8
HETATM    8  NAH   D T1686       8.574   5.190  -6.443  1.00 18.72    -0.057 NA
BRANCH   8   9
HETATM    9  CAL   D T1686       9.662   5.054  -5.665  1.00 18.22     0.122 A 
HETATM   10  CAS   D T1686      10.683   5.980  -5.844  1.00 20.44     0.114 A 
HETATM   11  CAY   D T1686      11.856   5.897  -5.066  1.00 18.94     0.043 A 
HETATM   12  CBA   D T1686      12.014   4.906  -4.090  1.00 20.47     0.058 A 
HETATM   13  CAX   D T1686      10.986   3.965  -3.918  1.00 17.39     0.019 A 
HETATM   14  CAR   D T1686       9.820   4.056  -4.687  1.00 18.28     0.023 A 
BRANCH  10  15
HETATM   15  OAT   D T1686      10.483   6.931  -6.796  1.00 18.42    -0.327 OA
HETATM   16  CAU   D T1686      11.565   7.874  -6.823  1.00 20.67     0.181 C 
ENDBRANCH  10  15
BRANCH  12  17
HETATM   17  NBB   D T1686      13.202   4.817  -3.284  1.00 22.32    -0.343 N 
HETATM   18  CBC   D T1686      14.281   5.822  -3.421  1.00 27.64     0.134 C 
HETATM   19  CBE   D T1686      15.665   5.239  -3.072  1.00 28.37     0.167 C 
HETATM   20  OBG   D T1686      15.612   4.550  -1.828  1.00 28.23    -0.350 OA
HETATM   21  CBF   D T1686      14.799   3.385  -1.935  1.00 27.59     0.167 C 
HETATM   22  CBD   D T1686      13.350   3.697  -2.324  1.00 25.14     0.134 C 
ENDBRANCH  12  17
ENDBRANCH   8   9
ENDBRANCH   1   8
BRANCH   7  23
HETATM   23  NAE   D T1686       7.619   0.576  -6.858  1.00 16.74    -0.225 NA
BRANCH  23  24
HETATM   24  CAJ   D T1686       8.525   0.104  -5.969  1.00 21.60     0.088 A 
HETATM   25  CAQ   D T1686       9.883   0.453  -6.120  1.00 19.37     0.019 A 
HETATM   26  CAW   D T1686      10.855   0.000  -5.246  1.00 21.30     0.002 A 
HETATM   27  CAZ   D T1686      10.495  -0.864  -4.212  1.00 22.64     0.000 A 
HETATM   28  CAV   D T1686       9.160  -1.234  -4.057  1.00 23.23     0.006 A 
HETATM   29  CAP   D T1686       8.172  -0.758  -4.916  1.00 20.25     0.075 A 
BRANCH  29  30
HETATM   30  CAO   D T1686       6.728  -1.214  -4.665  1.00 17.59     0.276 C 
HETATM   31  OAI   D T1686       5.927  -1.229  -5.588  1.00 15.81    -0.266 OA
HETATM   32  NAN   D T1686       6.435  -1.550  -3.406  1.00 14.44    -0.232 NA
HETATM   33  CAM   D T1686       5.079  -2.035  -3.114  1.00 17.53     0.155 C 
ENDBRANCH  29  30
ENDBRANCH  23  24
ENDBRANCH   7  23
TORSDOF 7
