REMARK  2 active torsions:
REMARK  status: ('A' for Active; 'I' for Inactive)
REMARK    1  A    between atoms: C5_4  and  O7_13 
REMARK    2  A    between atoms: C8_10  and  O7_13 
ROOT
HETATM    1  O7    D T 705       7.757   1.774  -5.772  1.00 53.87    -0.304 OA
ENDROOT
BRANCH   1   2
HETATM    2  C5    D T 705       7.754   1.683  -7.117  1.00 53.80     0.125 A 
HETATM    3  C6    D T 705       7.480   0.362  -7.693  1.00 53.82     0.154 A 
HETATM    4  C1    D T 705       7.500   0.255  -9.068  1.00 52.44     0.041 A 
HETATM    5  O17   D T 705       7.249  -0.643  -6.852  1.00 52.72    -0.188 OA
HETATM    6  C2    D T 705       7.748   1.394  -9.823  1.00 52.70     0.060 A 
HETATM    7  C3    D T 705       8.019   2.629  -9.275  1.00 52.61     0.014 A 
HETATM    8 CL14   D T 705       7.743   1.324 -11.598  1.00 53.97    -0.082 Cl
HETATM    9  C4    D T 705       8.031   2.785  -7.905  1.00 53.27     0.028 A 
ENDBRANCH   1   2
BRANCH   1  10
HETATM   10  C8    D T 705       8.933   1.744  -5.100  1.00 53.50     0.111 A 
HETATM   11  C9    D T 705       8.934   2.242  -3.712  1.00 52.76     0.081 A 
HETATM   12  C10   D T 705      10.106   2.206  -3.003  1.00 53.10     0.025 A 
HETATM   13 CL16   D T 705       7.452   2.861  -2.918  1.00 54.87    -0.080 Cl
HETATM   14  C11   D T 705      11.257   1.728  -3.600  1.00 52.79     0.059 A 
HETATM   15  C12   D T 705      11.260   1.273  -4.911  1.00 53.52     0.013 A 
HETATM   16 CL15   D T 705      12.753   1.719  -2.610  1.00 52.95    -0.082 Cl
HETATM   17  C13   D T 705      10.107   1.264  -5.676  1.00 52.90     0.026 A 
ENDBRANCH   1  10
TORSDOF 2
