REMARK  2 active torsions:
REMARK  status: ('A' for Active; 'I' for Inactive)
REMARK    1  A    between atoms: C5_4  and  O7_13 
REMARK    2  A    between atoms: C8_10  and  O7_13 
ROOT
HETATM    1  O7    D T 705       6.303   2.200  -6.673  1.00 53.87    -0.304 OA
ENDROOT
BRANCH   1   2
HETATM    2  C5    D T 705       6.174   1.975  -7.996  1.00 53.80     0.125 A 
HETATM    3  C6    D T 705       6.081   0.576  -8.427  1.00 53.82     0.154 A 
HETATM    4  C1    D T 705       5.973   0.337  -9.781  1.00 52.44     0.041 A 
HETATM    5  O17   D T 705       6.123  -0.364  -7.486  1.00 52.72    -0.188 OA
HETATM    6  C2    D T 705       5.933   1.420 -10.650  1.00 52.70     0.060 A 
HETATM    7  C3    D T 705       6.036   2.732 -10.239  1.00 52.61     0.014 A 
HETATM    8 CL14   D T 705       5.752   1.173 -12.400  1.00 53.97    -0.082 Cl
HETATM    9  C4    D T 705       6.165   3.023  -8.898  1.00 53.27     0.028 A 
ENDBRANCH   1   2
BRANCH   1  10
HETATM   10  C8    D T 705       7.530   2.435  -6.149  1.00 53.50     0.111 A 
HETATM   11  C9    D T 705       7.589   3.063  -4.816  1.00 52.76     0.081 A 
HETATM   12  C10   D T 705       8.818   3.296  -4.255  1.00 53.10     0.025 A 
HETATM   13 CL16   D T 705       6.113   3.501  -3.900  1.00 54.87    -0.080 Cl
HETATM   14  C11   D T 705       9.966   2.960  -4.947  1.00 52.79     0.059 A 
HETATM   15  C12   D T 705       9.910   2.383  -6.208  1.00 53.52     0.013 A 
HETATM   16 CL15   D T 705      11.535   3.302  -4.149  1.00 52.95    -0.082 Cl
HETATM   17  C13   D T 705       8.703   2.105  -6.823  1.00 52.90     0.026 A 
ENDBRANCH   1  10
TORSDOF 2
