REMARK  2 active torsions:
REMARK  status: ('A' for Active; 'I' for Inactive)
REMARK    1  A    between atoms: C5_4  and  O7_13 
REMARK    2  A    between atoms: C8_10  and  O7_13 
ROOT
HETATM    1  O7    D T 705     -30.633  48.756  37.218  1.00 53.87    -0.304 OA
ENDROOT
BRANCH   1   2
HETATM    2  C5    D T 705     -31.284  49.782  36.634  1.00 53.80     0.125 A 
HETATM    3  C6    D T 705     -30.562  51.054  36.527  1.00 53.82     0.154 A 
HETATM    4  C1    D T 705     -31.231  52.115  35.953  1.00 52.44     0.041 A 
HETATM    5  O17   D T 705     -29.321  51.101  37.005  1.00 52.72    -0.188 OA
HETATM    6  C2    D T 705     -32.525  51.917  35.490  1.00 52.70     0.060 A 
HETATM    7  C3    D T 705     -33.203  50.723  35.607  1.00 52.61     0.014 A 
HETATM    8 CL14   D T 705     -33.418  53.236  34.703  1.00 53.97    -0.082 Cl
HETATM    9  C4    D T 705     -32.586  49.637  36.191  1.00 53.27     0.028 A 
ENDBRANCH   1   2
BRANCH   1  10
HETATM   10  C8    D T 705     -30.863  48.471  38.522  1.00 53.50     0.111 A 
HETATM   11  C9    D T 705     -30.461  47.137  39.005  1.00 52.76     0.081 A 
HETATM   12  C10   D T 705     -30.666  46.828  40.325  1.00 53.10     0.025 A 
HETATM   13 CL16   D T 705     -29.690  45.925  37.935  1.00 54.87    -0.080 Cl
HETATM   14  C11   D T 705     -31.256  47.753  41.165  1.00 52.79     0.059 A 
HETATM   15  C12   D T 705     -31.648  49.003  40.707  1.00 53.52     0.013 A 
HETATM   16 CL15   D T 705     -31.497  47.273  42.876  1.00 52.95    -0.082 Cl
HETATM   17  C13   D T 705     -31.453  49.385  39.391  1.00 52.90     0.026 A 
ENDBRANCH   1  10
TORSDOF 2
