REMARK  2 active torsions:
REMARK  status: ('A' for Active; 'I' for Inactive)
REMARK    1  A    between atoms: C5_4  and  O7_13 
REMARK    2  A    between atoms: C8_10  and  O7_13 
ROOT
HETATM    1  O7    D T 705       6.392   2.261  -6.710  1.00 22.05    -0.304 OA
ENDROOT
BRANCH   1   2
HETATM    2  C5    D T 705       6.235   2.095  -8.045  1.00 22.37     0.125 A 
HETATM    3  C6    D T 705       6.155   0.708  -8.531  1.00 22.42     0.154 A 
HETATM    4  C1    D T 705       5.999   0.503  -9.897  1.00 22.18     0.041 A 
HETATM    5  O17   D T 705       6.235  -0.283  -7.640  1.00 21.45    -0.188 OA
HETATM    6  C2    D T 705       5.926   1.585 -10.757  1.00 22.53     0.060 A 
HETATM    7  C3    D T 705       6.008   2.903 -10.291  1.00 22.56     0.014 A 
HETATM    8 CL14   D T 705       5.721   1.276 -12.502  1.00 21.73    -0.082 Cl
HETATM    9  C4    D T 705       6.164   3.158  -8.932  1.00 22.81     0.028 A 
ENDBRANCH   1   2
BRANCH   1  10
HETATM   10  C8    D T 705       7.636   2.269  -6.180  1.00 21.94     0.111 A 
HETATM   11  C9    D T 705       7.763   2.714  -4.787  1.00 22.85     0.081 A 
HETATM   12  C10   D T 705       9.009   2.746  -4.184  1.00 22.60     0.025 A 
HETATM   13 CL16   D T 705       6.281   3.196  -3.930  1.00 21.30    -0.080 Cl
HETATM   14  C11   D T 705      10.107   2.358  -4.925  1.00 22.34     0.059 A 
HETATM   15  C12   D T 705       9.996   1.928  -6.248  1.00 22.46     0.013 A 
HETATM   16 CL15   D T 705      11.712   2.404  -4.177  1.00 24.32    -0.082 Cl
HETATM   17  C13   D T 705       8.767   1.886  -6.885  1.00 21.87     0.026 A 
ENDBRANCH   1  10
TORSDOF 2
