REMARK  2 active torsions:
REMARK  status: ('A' for Active; 'I' for Inactive)
REMARK    1  A    between atoms: C5_4  and  O7_13 
REMARK    2  A    between atoms: C8_10  and  O7_13 
ROOT
HETATM    1  O7    D T 705       7.844   1.805  -5.792  1.00 22.05    -0.304 OA
ENDROOT
BRANCH   1   2
HETATM    2  C5    D T 705       7.826   1.776  -7.146  1.00 22.37     0.125 A 
HETATM    3  C6    D T 705       7.573   0.468  -7.773  1.00 22.42     0.154 A 
HETATM    4  C1    D T 705       7.554   0.403  -9.162  1.00 22.18     0.041 A 
HETATM    5  O17   D T 705       7.375  -0.589  -6.981  1.00 21.45    -0.188 OA
HETATM    6  C2    D T 705       7.771   1.545  -9.913  1.00 22.53     0.060 A 
HETATM    7  C3    D T 705       8.015   2.786  -9.312  1.00 22.56     0.014 A 
HETATM    8 CL14   D T 705       7.731   1.417 -11.691  1.00 21.73    -0.082 Cl
HETATM    9  C4    D T 705       8.044   2.901  -7.925  1.00 22.81     0.028 A 
ENDBRANCH   1   2
BRANCH   1  10
HETATM   10  C8    D T 705       8.998   1.547  -5.134  1.00 21.94     0.111 A 
HETATM   11  C9    D T 705       9.026   1.851  -3.698  1.00 22.85     0.081 A 
HETATM   12  C10   D T 705      10.176   1.611  -2.965  1.00 22.60     0.025 A 
HETATM   13 CL16   D T 705       7.553   2.521  -2.961  1.00 21.30    -0.080 Cl
HETATM   14  C11   D T 705      11.275   1.093  -3.620  1.00 22.34     0.059 A 
HETATM   15  C12   D T 705      11.256   0.796  -4.983  1.00 22.46     0.013 A 
HETATM   16 CL15   D T 705      12.761   0.791  -2.704  1.00 24.32    -0.082 Cl
HETATM   17  C13   D T 705      10.125   1.025  -5.749  1.00 21.87     0.026 A 
ENDBRANCH   1  10
TORSDOF 2
