REMARK  2 active torsions:
REMARK  status: ('A' for Active; 'I' for Inactive)
REMARK    1  A    between atoms: C5_4  and  O7_13 
REMARK    2  A    between atoms: C8_10  and  O7_13 
ROOT
HETATM    1  O7    D T2414       8.057   1.931  -5.807  1.00 46.04    -0.304 OA
ENDROOT
BRANCH   1   2
HETATM    2  C5    D T2414       7.923   1.763  -7.157  1.00 46.04     0.125 A 
HETATM    3  C6    D T2414       7.595   0.421  -7.714  1.00 45.72     0.154 A 
HETATM    4  C1    D T2414       7.452   0.270  -9.088  1.00 44.92     0.041 A 
HETATM    5  O17   D T2414       7.452  -0.645  -6.887  1.00 46.47    -0.188 OA
HETATM    6  C2    D T2414       7.618   1.373  -9.919  1.00 44.57     0.060 A 
HETATM    7  C3    D T2414       7.926   2.636  -9.402  1.00 45.65     0.014 A 
HETATM    8 CL14   D T2414       7.421   1.164 -11.681  1.00 42.89    -0.082 Cl
HETATM    9  C4    D T2414       8.077   2.843  -8.025  1.00 46.07     0.028 A 
ENDBRANCH   1   2
BRANCH   1  10
HETATM   10  C8    D T2414       9.235   1.750  -5.133  1.00 45.94     0.111 A 
HETATM   11  C9    D T2414       9.275   2.059  -3.682  1.00 45.79     0.081 A 
HETATM   12  C10   D T2414      10.457   1.885  -2.972  1.00 45.84     0.025 A 
HETATM   13 CL16   D T2414       7.798   2.653  -2.863  1.00 44.04    -0.080 Cl
HETATM   14  C11   D T2414      11.587   1.421  -3.638  1.00 45.93     0.059 A 
HETATM   15  C12   D T2414      11.549   1.126  -5.002  1.00 45.73     0.013 A 
HETATM   16 CL15   D T2414      13.112   1.190  -2.721  1.00 45.14    -0.082 Cl
HETATM   17  C13   D T2414      10.388   1.287  -5.756  1.00 45.77     0.026 A 
ENDBRANCH   1  10
TORSDOF 2
