REMARK  2 active torsions:
REMARK  status: ('A' for Active; 'I' for Inactive)
REMARK    1  A    between atoms: C5_4  and  O7_13 
REMARK    2  A    between atoms: C8_10  and  O7_13 
ROOT
HETATM    1  O7    D T2414       7.811   1.700  -6.052  1.00 46.04    -0.304 OA
ENDROOT
BRANCH   1   2
HETATM    2  C5    D T2414       7.674   1.416  -7.383  1.00 46.04     0.125 A 
HETATM    3  C6    D T2414       7.409   0.018  -7.824  1.00 45.72     0.154 A 
HETATM    4  C1    D T2414       7.262  -0.252  -9.179  1.00 44.92     0.041 A 
HETATM    5  O17   D T2414       7.326  -0.981  -6.911  1.00 46.47    -0.188 OA
HETATM    6  C2    D T2414       7.366   0.786 -10.100  1.00 44.57     0.060 A 
HETATM    7  C3    D T2414       7.615   2.101  -9.692  1.00 45.65     0.014 A 
HETATM    8 CL14   D T2414       7.165   0.423 -11.836  1.00 42.89    -0.082 Cl
HETATM    9  C4    D T2414       7.767   2.427  -8.338  1.00 46.07     0.028 A 
ENDBRANCH   1   2
BRANCH   1  10
HETATM   10  C8    D T2414       9.002   1.634  -5.381  1.00 45.94     0.111 A 
HETATM   11  C9    D T2414       9.039   2.063  -3.960  1.00 45.79     0.081 A 
HETATM   12  C10   D T2414      10.235   2.006  -3.253  1.00 45.84     0.025 A 
HETATM   13 CL16   D T2414       7.542   2.649  -3.175  1.00 44.04    -0.080 Cl
HETATM   14  C11   D T2414      11.380   1.545  -3.893  1.00 45.93     0.059 A 
HETATM   15  C12   D T2414      11.345   1.137  -5.229  1.00 45.73     0.013 A 
HETATM   16 CL15   D T2414      12.923   1.466  -2.980  1.00 45.14    -0.082 Cl
HETATM   17  C13   D T2414      10.172   1.178  -5.978  1.00 45.77     0.026 A 
ENDBRANCH   1  10
TORSDOF 2
