REMARK  2 active torsions:
REMARK  status: ('A' for Active; 'I' for Inactive)
REMARK    1  A    between atoms: C5_4  and  O7_13 
REMARK    2  A    between atoms: C8_10  and  O7_13 
ROOT
HETATM    1  O7    D T2414      11.920  10.438  22.648  1.00 46.04    -0.304 OA
ENDROOT
BRANCH   1   2
HETATM    2  C5    D T2414      13.179   9.905  22.617  1.00 46.04     0.125 A 
HETATM    3  C6    D T2414      14.308  10.689  22.043  1.00 45.72     0.154 A 
HETATM    4  C1    D T2414      15.583  10.137  22.029  1.00 44.92     0.041 A 
HETATM    5  O17   D T2414      14.088  11.924  21.527  1.00 46.47    -0.188 OA
HETATM    6  C2    D T2414      15.783   8.862  22.550  1.00 44.57     0.060 A 
HETATM    7  C3    D T2414      14.727   8.121  23.091  1.00 45.65     0.014 A 
HETATM    8 CL14   D T2414      17.429   8.171  22.533  1.00 42.89    -0.082 Cl
HETATM    9  C4    D T2414      13.424   8.633  23.133  1.00 46.07     0.028 A 
ENDBRANCH   1   2
BRANCH   1  10
HETATM   10  C8    D T2414      11.021  10.320  21.623  1.00 45.94     0.111 A 
HETATM   11  C9    D T2414       9.651  10.858  21.817  1.00 45.79     0.081 A 
HETATM   12  C10   D T2414       8.717  10.752  20.793  1.00 45.84     0.025 A 
HETATM   13 CL16   D T2414       9.219  11.637  23.369  1.00 44.04    -0.080 Cl
HETATM   14  C11   D T2414       9.085  10.142  19.599  1.00 45.93     0.059 A 
HETATM   15  C12   D T2414      10.375   9.639  19.414  1.00 45.73     0.013 A 
HETATM   16 CL15   D T2414       7.882  10.010  18.274  1.00 45.14    -0.082 Cl
HETATM   17  C13   D T2414      11.344   9.720  20.411  1.00 45.77     0.026 A 
ENDBRANCH   1  10
TORSDOF 2
