REMARK  2 active torsions:
REMARK  status: ('A' for Active; 'I' for Inactive)
REMARK    1  A    between atoms: C5_4  and  O7_13 
REMARK    2  A    between atoms: C8_10  and  O7_13 
ROOT
HETATM    1  O7    D T2414       6.596   2.414  -6.708  1.00 46.04    -0.304 OA
ENDROOT
BRANCH   1   2
HETATM    2  C5    D T2414       6.356   2.093  -8.016  1.00 46.04     0.125 A 
HETATM    3  C6    D T2414       6.216   0.666  -8.421  1.00 45.72     0.154 A 
HETATM    4  C1    D T2414       5.961   0.358  -9.752  1.00 44.92     0.041 A 
HETATM    5  O17   D T2414       6.350  -0.321  -7.500  1.00 46.47    -0.188 OA
HETATM    6  C2    D T2414       5.843   1.386 -10.682  1.00 44.57     0.060 A 
HETATM    7  C3    D T2414       5.973   2.728 -10.308  1.00 45.65     0.014 A 
HETATM    8 CL14   D T2414       5.506   0.973 -12.386  1.00 42.89    -0.082 Cl
HETATM    9  C4    D T2414       6.225   3.092  -8.979  1.00 46.07     0.028 A 
ENDBRANCH   1   2
BRANCH   1  10
HETATM   10  C8    D T2414       7.849   2.500  -6.167  1.00 45.94     0.111 A 
HETATM   11  C9    D T2414       7.983   2.954  -4.759  1.00 45.79     0.081 A 
HETATM   12  C10   D T2414       9.244   3.052  -4.183  1.00 45.84     0.025 A 
HETATM   13 CL16   D T2414       6.517   3.370  -3.822  1.00 44.04    -0.080 Cl
HETATM   14  C11   D T2414      10.363   2.720  -4.938  1.00 45.93     0.059 A 
HETATM   15  C12   D T2414      10.238   2.289  -6.261  1.00 45.73     0.013 A 
HETATM   16 CL15   D T2414      11.992   2.840  -4.194  1.00 45.14    -0.082 Cl
HETATM   17  C13   D T2414       8.997   2.178  -6.882  1.00 45.77     0.026 A 
ENDBRANCH   1  10
TORSDOF 2
