REMARK  2 active torsions:
REMARK  status: ('A' for Active; 'I' for Inactive)
REMARK    1  A    between atoms: C5_4  and  O7_13 
REMARK    2  A    between atoms: C8_10  and  O7_13 
ROOT
HETATM    1  O7    D T 601       8.156   2.146  -6.157  1.00 22.91    -0.304 OA
ENDROOT
BRANCH   1   2
HETATM    2  C5    D T 601       8.085   2.038  -7.547  1.00 20.74     0.121 A 
HETATM    3  C6    D T 601       7.717   0.818  -8.143  1.00 18.69     0.136 A 
HETATM    4  C1    D T 601       7.638   0.707  -9.592  1.00 19.14     0.094 A 
HETATM    5  O17   D T 601       7.442  -0.239  -7.326  1.00 19.23    -0.192 OA
HETATM    6  C2    D T 601       7.938   1.845 -10.410  1.00 17.42     0.042 A 
HETATM    7  C3    D T 601       8.312   3.073  -9.793  1.00 18.45     0.010 A 
HETATM    8 CL14   D T 601       7.852   1.751 -12.095  1.00  7.86    -0.087 Cl
HETATM    9  C4    D T 601       8.382   3.171  -8.359  1.00 18.04     0.027 A 
ENDBRANCH   1   2
BRANCH   1  10
HETATM   10  C8    D T 601       9.380   1.999  -5.469  1.00 22.66     0.111 A 
HETATM   11  C9    D T 601       9.365   2.169  -4.030  1.00 21.19     0.081 A 
HETATM   12  C10   D T 601      10.589   2.051  -3.300  1.00 21.37     0.025 A 
HETATM   13 CL16   D T 601       7.892   2.536  -3.168  1.00 20.16    -0.080 Cl
HETATM   14  C11   D T 601      11.826   1.761  -3.990  1.00 19.62     0.059 A 
HETATM   15  C12   D T 601      11.839   1.583  -5.411  1.00 21.14     0.013 A 
HETATM   16 CL15   D T 601      13.274   1.634  -3.117  1.00 11.58    -0.082 Cl
HETATM   17  C13   D T 601      10.633   1.702  -6.148  1.00 20.93     0.026 A 
ENDBRANCH   1  10
TORSDOF 2
