REMARK  2 active torsions:
REMARK  status: ('A' for Active; 'I' for Inactive)
REMARK    1  A    between atoms: C5_4  and  O7_13 
REMARK    2  A    between atoms: C8_10  and  O7_13 
ROOT
HETATM    1  O7    D T 601       6.591   2.606  -7.114  1.00 22.91    -0.304 OA
ENDROOT
BRANCH   1   2
HETATM    2  C5    D T 601       6.396   2.349  -8.472  1.00 20.74     0.121 A 
HETATM    3  C6    D T 601       6.192   1.031  -8.920  1.00 18.69     0.136 A 
HETATM    4  C1    D T 601       5.983   0.765 -10.336  1.00 19.14     0.094 A 
HETATM    5  O17   D T 601       6.197   0.031  -7.994  1.00 19.23    -0.192 OA
HETATM    6  C2    D T 601       5.987   1.850 -11.273  1.00 17.42     0.042 A 
HETATM    7  C3    D T 601       6.198   3.178 -10.805  1.00 18.45     0.010 A 
HETATM    8 CL14   D T 601       5.744   1.575 -12.922  1.00  7.86    -0.087 Cl
HETATM    9  C4    D T 601       6.400   3.429  -9.402  1.00 18.04     0.027 A 
ENDBRANCH   1   2
BRANCH   1  10
HETATM   10  C8    D T 601       7.887   2.736  -6.569  1.00 22.66     0.111 A 
HETATM   11  C9    D T 601       7.993   3.043  -5.156  1.00 21.19     0.081 A 
HETATM   12  C10   D T 601       9.287   3.207  -4.572  1.00 21.37     0.025 A 
HETATM   13 CL16   D T 601       6.577   3.241  -4.156  1.00 20.16    -0.080 Cl
HETATM   14  C11   D T 601      10.477   3.061  -5.381  1.00 19.62     0.059 A 
HETATM   15  C12   D T 601      10.374   2.748  -6.774  1.00 21.14     0.013 A 
HETATM   16 CL15   D T 601      12.008   3.268  -4.681  1.00 11.58    -0.082 Cl
HETATM   17  C13   D T 601       9.095   2.588  -7.367  1.00 20.93     0.026 A 
ENDBRANCH   1  10
TORSDOF 2
