REMARK  7 active torsions:
REMARK  status: ('A' for Active; 'I' for Inactive)
REMARK    1  A    between atoms: N3_2  and  C8_7 
REMARK    2  A    between atoms: C5_4  and  C9_34 
REMARK    3  A    between atoms: C7_6  and  N5_28 
REMARK       I    between atoms: C21_13  and  N6_18 
REMARK    4  A    between atoms: C21_13  and  C18_23 
REMARK    5  A    between atoms: C22_14  and  N6_18 
REMARK    6  A    between atoms: C16_24  and  O3_25 
REMARK    7  A    between atoms: N5_28  and  C1_29 
ROOT
HETATM    1  N1    D T 500       4.900   9.507   3.905  1.00 27.06    -0.056 NA
HETATM    2  N3    D T 500       4.869  12.697   1.362  1.00 26.37    -0.328 N 
HETATM    3  C4    D T 500       3.776   9.743   3.203  1.00 25.67     0.138 A 
HETATM    4  C5    D T 500       3.655  13.042   0.591  1.00 25.49     0.162 A 
HETATM    5  C6    D T 500       2.544  12.075   0.680  1.00 25.40     0.258 A 
HETATM    6  C1    D T 500       5.976  10.312   3.817  1.00 25.59     0.752 A 
HETATM    7  N2    D T 500       5.975  11.353   2.981  1.00 26.47    -0.041 NA
HETATM    8  C2    D T 500       4.876  11.599   2.223  1.00 27.25     0.176 A 
HETATM    9  O1    D T 500       1.535  12.291  -0.040  1.00 25.90    -0.270 OA
HETATM   10  N4    D T 500       2.593  11.036   1.522  1.00 24.91    -0.292 N 
HETATM   11  C11   D T 500       1.473  10.084   1.667  1.00 26.11     0.134 C 
HETATM   12  C3    D T 500       3.748  10.800   2.326  1.00 25.06     0.117 A 
ENDROOT
BRANCH   6  13
HETATM   13  N5    D T 500       7.042   9.976   4.562  1.00 28.04    -0.057 NA
BRANCH  13  14
HETATM   14  C7    D T 500       8.251  10.610   4.655  1.00 28.56     0.122 A 
HETATM   15  C20   D T 500       8.720  11.556   3.748  1.00 29.54     0.022 A 
HETATM   16  C19   D T 500       9.977  12.164   3.954  1.00 31.30     0.006 A 
HETATM   17  C18   D T 500      10.737  11.751   5.058  1.00 30.71     0.060 A 
HETATM   18  C17   D T 500      10.266  10.788   5.939  1.00 29.59     0.030 A 
HETATM   19  C16   D T 500       9.017  10.219   5.750  1.00 30.85     0.113 A 
BRANCH  17  20
HETATM   20  C21   D T 500      12.089  12.329   5.389  1.00 33.20     0.275 C 
HETATM   21  O2    D T 500      12.869  11.640   6.045  1.00 35.96    -0.266 OA
HETATM   22  N6    D T 500      12.374  13.565   5.024  1.00 37.33    -0.236 NA
BRANCH  22  23
HETATM   23  C22   D T 500      13.675  14.129   5.379  1.00 43.13     0.111 C 
HETATM   24  C29   D T 500      13.370  15.336   6.262  1.00 44.78     0.060 C 
HETATM   25  C28   D T 500      14.556  16.303   6.391  1.00 46.83     0.252 C 
HETATM   26  N7    D T 500      15.165  16.633   5.084  1.00 47.55     0.139 N 
HETATM   27  C24   D T 500      15.539  15.400   4.364  1.00 48.06     0.252 C 
HETATM   28  C30   D T 500      16.414  17.388   5.293  1.00 49.74     0.285 C 
HETATM   29  C23   D T 500      14.272  14.601   4.068  1.00 44.59     0.060 C 
ENDBRANCH  22  23
ENDBRANCH  17  20
BRANCH  19  30
HETATM   30  O3    D T 500       8.501   9.275   6.620  1.00 30.91    -0.327 OA
HETATM   31  C31   D T 500       9.084   8.930   7.889  1.00 35.09     0.181 C 
ENDBRANCH  19  30
ENDBRANCH  13  14
ENDBRANCH   6  13
BRANCH   2  32
HETATM   32  C8    D T 500       6.129  13.473   1.306  1.00 26.27     0.083 C 
HETATM   33  C15   D T 500       6.449  14.502   2.382  1.00 26.00     0.022 C 
HETATM   34  C14   D T 500       7.371  15.476   1.665  1.00 27.32     0.002 C 
HETATM   35  C13   D T 500       7.350  15.214   0.168  1.00 30.42     0.002 C 
HETATM   36  C12   D T 500       6.312  14.124  -0.054  1.00 25.87     0.022 C 
ENDBRANCH   2  32
BRANCH   4  37
HETATM   37  C9    D T 500       3.051  14.277   1.331  1.00 27.17     0.032 C 
HETATM   38  C10   D T 500       2.708  14.124   2.837  1.00 25.21     0.003 C 
ENDBRANCH   4  37
TORSDOF 7
