REMARK  7 active torsions:
REMARK  status: ('A' for Active; 'I' for Inactive)
REMARK    1  A    between atoms: N3_2  and  C8_7 
REMARK    2  A    between atoms: C5_4  and  C9_34 
REMARK    3  A    between atoms: C7_6  and  N5_28 
REMARK       I    between atoms: C21_13  and  N6_18 
REMARK    4  A    between atoms: C21_13  and  C18_23 
REMARK    5  A    between atoms: C22_14  and  N6_18 
REMARK    6  A    between atoms: C16_24  and  O3_25 
REMARK    7  A    between atoms: N5_28  and  C1_29 
ROOT
HETATM    1  N1    D T 500      -9.049   0.221  -7.295  1.00 27.06    -0.056 NA
HETATM    2  N3    D T 500     -11.073   3.170  -5.332  1.00 26.37    -0.328 N 
HETATM    3  C4    D T 500      -8.340   1.068  -6.527  1.00 25.67     0.138 A 
HETATM    4  C5    D T 500     -10.354   4.163  -4.506  1.00 25.49     0.162 A 
HETATM    5  C6    D T 500      -8.913   3.914  -4.314  1.00 25.40     0.258 A 
HETATM    6  C1    D T 500     -10.379   0.350  -7.457  1.00 25.59     0.752 A 
HETATM    7  N2    D T 500     -11.049   1.309  -6.812  1.00 26.47    -0.041 NA
HETATM    8  C2    D T 500     -10.376   2.157  -5.994  1.00 27.25     0.176 A 
HETATM    9  O1    D T 500      -8.294   4.687  -3.538  1.00 25.90    -0.270 OA
HETATM   10  N4    D T 500      -8.284   2.931  -4.970  1.00 24.91    -0.292 N 
HETATM   11  C11   D T 500      -6.833   2.694  -4.835  1.00 26.11     0.134 C 
HETATM   12  C3    D T 500      -9.002   2.059  -5.841  1.00 25.06     0.117 A 
ENDROOT
BRANCH   6  13
HETATM   13  N5    D T 500     -10.981  -0.556  -8.244  1.00 28.04    -0.057 NA
BRANCH  13  14
HETATM   14  C7    D T 500     -12.307  -0.657  -8.569  1.00 28.56     0.122 A 
HETATM   15  C20   D T 500     -13.340  -0.017  -7.888  1.00 29.54     0.022 A 
HETATM   16  C19   D T 500     -14.672  -0.175  -8.325  1.00 31.30     0.006 A 
HETATM   17  C18   D T 500     -14.914  -1.020  -9.418  1.00 30.71     0.060 A 
HETATM   18  C17   D T 500     -13.875  -1.669 -10.070  1.00 29.59     0.030 A 
HETATM   19  C16   D T 500     -12.566  -1.485  -9.659  1.00 30.85     0.113 A 
BRANCH  17  20
HETATM   20  C21   D T 500     -16.290  -1.263  -9.982  1.00 33.20     0.275 C 
HETATM   21  O2    D T 500     -16.489  -2.312 -10.592  1.00 35.96    -0.266 OA
HETATM   22  N6    D T 500     -17.215  -0.330  -9.862  1.00 37.33    -0.236 NA
BRANCH  22  23
HETATM   23  C22   D T 500     -18.537  -0.561 -10.442  1.00 43.13     0.111 C 
HETATM   24  C29   D T 500     -18.727   0.544 -11.477  1.00 44.78     0.060 C 
HETATM   25  C28   D T 500     -20.195   0.736 -11.891  1.00 46.83     0.252 C 
HETATM   26  N7    D T 500     -21.107   0.814 -10.730  1.00 47.55     0.139 N 
HETATM   27  C24   D T 500     -20.933  -0.363  -9.857  1.00 48.06     0.252 C 
HETATM   28  C30   D T 500     -22.506   0.786 -11.193  1.00 49.74     0.285 C 
HETATM   29  C23   D T 500     -19.512  -0.355  -9.299  1.00 44.59     0.060 C 
ENDBRANCH  22  23
ENDBRANCH  17  20
BRANCH  19  30
HETATM   30  O3    D T 500     -11.501  -2.094 -10.298  1.00 30.91    -0.327 OA
HETATM   31  C31   D T 500     -11.597  -2.804 -11.546  1.00 35.09     0.181 C 
ENDBRANCH  19  30
ENDBRANCH  13  14
ENDBRANCH   6  13
BRANCH   2  32
HETATM   32  C8    D T 500     -12.539   3.177  -5.541  1.00 26.27     0.083 C 
HETATM   33  C15   D T 500     -13.136   3.788  -6.802  1.00 26.00     0.022 C 
HETATM   34  C14   D T 500     -14.532   4.197  -6.359  1.00 27.32     0.002 C 
HETATM   35  C13   D T 500     -14.648   4.118  -4.846  1.00 30.42     0.002 C 
HETATM   36  C12   D T 500     -13.261   3.754  -4.336  1.00 25.87     0.022 C 
ENDBRANCH   2  32
BRANCH   4  37
HETATM   37  C9    D T 500     -10.331   5.461  -5.374  1.00 27.17     0.032 C 
HETATM   38  C10   D T 500      -9.697   5.377  -6.788  1.00 25.21     0.003 C 
ENDBRANCH   4  37
TORSDOF 7
