REMARK  7 active torsions:
REMARK  status: ('A' for Active; 'I' for Inactive)
REMARK    1  A    between atoms: N3_2  and  C8_7 
REMARK    2  A    between atoms: C5_4  and  C9_34 
REMARK    3  A    between atoms: C7_6  and  N5_28 
REMARK       I    between atoms: C21_13  and  N6_18 
REMARK    4  A    between atoms: C21_13  and  C18_23 
REMARK    5  A    between atoms: C22_14  and  N6_18 
REMARK    6  A    between atoms: C16_24  and  O3_25 
REMARK    7  A    between atoms: N5_28  and  C1_29 
ROOT
HETATM    1  N1    D T 500       1.665   2.469   9.668  1.00 27.06    -0.056 NA
HETATM    2  N3    D T 500       2.091   5.980   7.636  1.00 26.37    -0.328 N 
HETATM    3  C4    D T 500       0.719   2.794   8.768  1.00 25.67     0.138 A 
HETATM    4  C5    D T 500       1.069   6.423   6.663  1.00 25.49     0.162 A 
HETATM    5  C6    D T 500       0.001   5.448   6.367  1.00 25.40     0.258 A 
HETATM    6  C1    D T 500       2.703   3.282   9.936  1.00 25.59     0.752 A 
HETATM    7  N2    D T 500       2.853   4.429   9.269  1.00 26.47    -0.041 NA
HETATM    8  C2    D T 500       1.944   4.773   8.322  1.00 27.25     0.176 A 
HETATM    9  O1    D T 500      -0.827   5.758   5.473  1.00 25.90    -0.270 OA
HETATM   10  N4    D T 500      -0.102   4.303   7.051  1.00 24.91    -0.292 N 
HETATM   11  C11   D T 500      -1.191   3.335   6.810  1.00 26.11     0.134 C 
HETATM   12  C3    D T 500       0.851   3.963   8.057  1.00 25.06     0.117 A 
ENDROOT
BRANCH   6  13
HETATM   13  N5    D T 500       3.586   2.851  10.852  1.00 28.04    -0.057 NA
BRANCH  13  14
HETATM   14  C7    D T 500       4.720   3.471  11.300  1.00 28.56     0.122 A 
HETATM   15  C20   D T 500       5.347   4.536  10.659  1.00 29.54     0.022 A 
HETATM   16  C19   D T 500       6.503   5.115  11.225  1.00 31.30     0.006 A 
HETATM   17  C18   D T 500       7.011   4.556  12.407  1.00 30.71     0.060 A 
HETATM   18  C17   D T 500       6.389   3.478  13.020  1.00 29.59     0.030 A 
HETATM   19  C16   D T 500       5.235   2.935  12.479  1.00 30.85     0.113 A 
BRANCH  17  20
HETATM   20  C21   D T 500       8.233   5.088  13.110  1.00 33.20     0.275 C 
HETATM   21  O2    D T 500       8.870   4.319  13.827  1.00 35.96    -0.266 OA
HETATM   22  N6    D T 500       8.547   6.364  12.988  1.00 37.33    -0.236 NA
BRANCH  22  23
HETATM   23  C22   D T 500       9.715   6.879  13.702  1.00 43.13     0.111 C 
HETATM   24  C29   D T 500       9.177   7.951  14.646  1.00 44.78     0.060 C 
HETATM   25  C28   D T 500      10.269   8.896  15.169  1.00 46.83     0.252 C 
HETATM   26  N7    D T 500      11.143   9.406  14.091  1.00 47.55     0.139 N 
HETATM   27  C24   D T 500      11.712   8.287  13.316  1.00 48.06     0.252 C 
HETATM   28  C30   D T 500      12.285  10.131  14.678  1.00 49.74     0.285 C 
HETATM   29  C23   D T 500      10.574   7.531  12.636  1.00 44.59     0.060 C 
ENDBRANCH  22  23
ENDBRANCH  17  20
BRANCH  19  30
HETATM   30  O3    D T 500       4.571   1.878  13.073  1.00 30.91    -0.327 OA
HETATM   31  C31   D T 500       4.867   1.362  14.384  1.00 35.09     0.181 C 
ENDBRANCH  19  30
ENDBRANCH  13  14
ENDBRANCH   6  13
BRANCH   2  32
HETATM   32  C8    D T 500       3.302   6.762   7.972  1.00 26.27     0.083 C 
HETATM   33  C15   D T 500       3.336   7.633   9.221  1.00 26.00     0.022 C 
HETATM   34  C14   D T 500       4.360   8.700   8.869  1.00 27.32     0.002 C 
HETATM   35  C13   D T 500       4.685   8.649   7.385  1.00 30.42     0.002 C 
HETATM   36  C12   D T 500       3.762   7.595   6.789  1.00 25.87     0.022 C 
ENDBRANCH   2  32
BRANCH   4  37
HETATM   37  C9    D T 500       0.271   7.541   7.406  1.00 27.17     0.032 C 
HETATM   38  C10   D T 500      -0.396   7.179   8.760  1.00 25.21     0.003 C 
ENDBRANCH   4  37
TORSDOF 7
