REMARK  7 active torsions:
REMARK  status: ('A' for Active; 'I' for Inactive)
REMARK    1  A    between atoms: N3_2  and  C8_7 
REMARK    2  A    between atoms: C5_4  and  C9_34 
REMARK    3  A    between atoms: C7_6  and  N5_28 
REMARK       I    between atoms: C21_13  and  N6_18 
REMARK    4  A    between atoms: C21_13  and  C18_23 
REMARK    5  A    between atoms: C22_14  and  N6_18 
REMARK    6  A    between atoms: C16_24  and  O3_25 
REMARK    7  A    between atoms: N5_28  and  C1_29 
ROOT
HETATM    1  N1    D T 500       7.756   4.463  -7.394  1.00 27.06    -0.056 NA
HETATM    2  N3    D T 500       8.756   0.720  -6.117  1.00 26.37    -0.328 N 
HETATM    3  C4    D T 500       6.896   3.459  -7.651  1.00 25.67     0.138 A 
HETATM    4  C5    D T 500       7.881  -0.439  -6.401  1.00 25.49     0.162 A 
HETATM    5  C6    D T 500       6.577  -0.121  -7.014  1.00 25.40     0.258 A 
HETATM    6  C1    D T 500       8.933   4.252  -6.775  1.00 25.59     0.752 A 
HETATM    7  N2    D T 500       9.263   3.031  -6.348  1.00 26.47    -0.041 NA
HETATM    8  C2    D T 500       8.404   1.999  -6.549  1.00 27.25     0.176 A 
HETATM    9  O1    D T 500       5.773  -1.074  -7.179  1.00 25.90    -0.270 OA
HETATM   10  N4    D T 500       6.282   1.121  -7.415  1.00 24.91    -0.292 N 
HETATM   11  C11   D T 500       5.005   1.455  -8.078  1.00 26.11     0.134 C 
HETATM   12  C3    D T 500       7.203   2.192  -7.213  1.00 25.06     0.117 A 
ENDROOT
BRANCH   6  13
HETATM   13  N5    D T 500       9.707   5.330  -6.570  1.00 28.04    -0.057 NA
BRANCH  13  14
HETATM   14  C7    D T 500      10.933   5.396  -5.967  1.00 28.56     0.122 A 
HETATM   15  C20   D T 500      11.476   4.396  -5.164  1.00 29.54     0.022 A 
HETATM   16  C19   D T 500      12.763   4.562  -4.608  1.00 31.30     0.006 A 
HETATM   17  C18   D T 500      13.437   5.767  -4.852  1.00 30.71     0.060 A 
HETATM   18  C17   D T 500      12.872   6.764  -5.634  1.00 29.59     0.030 A 
HETATM   19  C16   D T 500      11.623   6.583  -6.205  1.00 30.85     0.113 A 
BRANCH  17  20
HETATM   20  C21   D T 500      14.817   6.060  -4.321  1.00 33.20     0.275 C 
HETATM   21  O2    D T 500      15.143   7.237  -4.173  1.00 35.96    -0.266 OA
HETATM   22  N6    D T 500      15.649   5.063  -4.092  1.00 37.33    -0.236 NA
BRANCH  22  23
HETATM   23  C22   D T 500      16.997   5.359  -3.609  1.00 43.13     0.111 C 
HETATM   24  C29   D T 500      17.942   4.815  -4.677  1.00 44.78     0.060 C 
HETATM   25  C28   D T 500      19.384   4.644  -4.175  1.00 46.83     0.252 C 
HETATM   26  N7    D T 500      19.454   3.943  -2.875  1.00 47.55     0.139 N 
HETATM   27  C24   D T 500      18.603   4.621  -1.878  1.00 48.06     0.252 C 
HETATM   28  C30   D T 500      20.832   3.998  -2.354  1.00 49.74     0.285 C 
HETATM   29  C23   D T 500      17.150   4.545  -2.339  1.00 44.59     0.060 C 
ENDBRANCH  22  23
ENDBRANCH  17  20
BRANCH  19  30
HETATM   30  O3    D T 500      11.037   7.542  -7.011  1.00 30.91    -0.327 OA
HETATM   31  C31   D T 500      11.709   8.714  -7.505  1.00 35.09     0.181 C 
ENDBRANCH  19  30
ENDBRANCH  13  14
ENDBRANCH   6  13
BRANCH   2  32
HETATM   32  C8    D T 500      10.045   0.621  -5.396  1.00 26.27     0.083 C 
HETATM   33  C15   D T 500      11.358   0.565  -6.168  1.00 26.00     0.022 C 
HETATM   34  C14   D T 500      12.286  -0.171  -5.216  1.00 27.32     0.002 C 
HETATM   35  C13   D T 500      11.491  -0.789  -4.078  1.00 30.42     0.002 C 
HETATM   36  C12   D T 500      10.027  -0.518  -4.393  1.00 25.87     0.022 C 
ENDBRANCH   2  32
BRANCH   4  37
HETATM   37  C9    D T 500       8.593  -1.200  -7.563  1.00 27.17     0.032 C 
HETATM   38  C10   D T 500       8.890  -0.416  -8.869  1.00 25.21     0.003 C 
ENDBRANCH   4  37
TORSDOF 7
