REMARK  7 active torsions:
REMARK  status: ('A' for Active; 'I' for Inactive)
REMARK    1  A    between atoms: N3_2  and  C8_7 
REMARK    2  A    between atoms: C5_4  and  C9_34 
REMARK    3  A    between atoms: C7_6  and  N5_28 
REMARK       I    between atoms: C21_13  and  N6_18 
REMARK    4  A    between atoms: C21_13  and  C18_23 
REMARK    5  A    between atoms: C22_14  and  N6_18 
REMARK    6  A    between atoms: C16_24  and  O3_25 
REMARK    7  A    between atoms: N5_28  and  C1_29 
ROOT
HETATM    1  N1    D T 500      -5.283  -1.686  14.187  1.00 27.06    -0.056 NA
HETATM    2  N3    D T 500      -2.308   1.042  13.595  1.00 26.37    -0.328 N 
HETATM    3  C4    D T 500      -5.561  -0.603  13.437  1.00 25.67     0.138 A 
HETATM    4  C5    D T 500      -2.554   2.277  12.819  1.00 25.49     0.162 A 
HETATM    5  C6    D T 500      -3.867   2.364  12.153  1.00 25.40     0.258 A 
HETATM    6  C1    D T 500      -4.081  -1.861  14.767  1.00 25.59     0.752 A 
HETATM    7  N2    D T 500      -3.100  -0.976  14.571  1.00 26.47    -0.041 NA
HETATM    8  C2    D T 500      -3.328   0.108  13.786  1.00 27.25     0.176 A 
HETATM    9  O1    D T 500      -4.069   3.357  11.408  1.00 25.90    -0.270 OA
HETATM   10  N4    D T 500      -4.817   1.445  12.366  1.00 24.91    -0.292 N 
HETATM   11  C11   D T 500      -6.157   1.537  11.753  1.00 26.11     0.134 C 
HETATM   12  C3    D T 500      -4.569   0.320  13.209  1.00 25.06     0.117 A 
ENDROOT
BRANCH   6  13
HETATM   13  N5    D T 500      -3.918  -2.982  15.489  1.00 28.04    -0.057 NA
BRANCH  13  14
HETATM   14  C7    D T 500      -2.808  -3.403  16.170  1.00 28.56     0.122 A 
HETATM   15  C20   D T 500      -1.525  -2.896  15.984  1.00 29.54     0.022 A 
HETATM   16  C19   D T 500      -0.454  -3.391  16.759  1.00 31.30     0.006 A 
HETATM   17  C18   D T 500      -0.721  -4.423  17.670  1.00 30.71     0.060 A 
HETATM   18  C17   D T 500      -2.001  -4.935  17.826  1.00 29.59     0.030 A 
HETATM   19  C16   D T 500      -3.054  -4.422  17.087  1.00 30.85     0.113 A 
BRANCH  17  20
HETATM   20  C21   D T 500       0.335  -5.030  18.558  1.00 33.20     0.275 C 
HETATM   21  O2    D T 500       0.161  -6.177  18.965  1.00 35.96    -0.266 OA
HETATM   22  N6    D T 500       1.373  -4.301  18.923  1.00 37.33    -0.236 NA
BRANCH  22  23
HETATM   23  C22   D T 500       2.375  -4.887  19.813  1.00 43.13     0.111 C 
HETATM   24  C29   D T 500       2.367  -4.015  21.065  1.00 44.78     0.060 C 
HETATM   25  C28   D T 500       3.622  -4.197  21.933  1.00 46.83     0.252 C 
HETATM   26  N7    D T 500       4.871  -4.135  21.146  1.00 47.55     0.139 N 
HETATM   27  C24   D T 500       4.829  -5.104  20.034  1.00 48.06     0.252 C 
HETATM   28  C30   D T 500       6.014  -4.522  21.993  1.00 49.74     0.285 C 
HETATM   29  C23   D T 500       3.695  -4.716  19.087  1.00 44.59     0.060 C 
ENDBRANCH  22  23
ENDBRANCH  17  20
BRANCH  19  30
HETATM   30  O3    D T 500      -4.349  -4.887  17.231  1.00 30.91    -0.327 OA
HETATM   31  C31   D T 500      -4.783  -5.783  18.271  1.00 35.09     0.181 C 
ENDBRANCH  19  30
ENDBRANCH  13  14
ENDBRANCH   6  13
BRANCH   2  32
HETATM   32  C8    D T 500      -1.013   0.713  14.233  1.00 26.27     0.083 C 
HETATM   33  C15   D T 500      -0.791   0.989  15.715  1.00 26.00     0.022 C 
HETATM   34  C14   D T 500       0.717   1.162  15.811  1.00 27.32     0.002 C 
HETATM   35  C13   D T 500       1.321   1.292  14.423  1.00 30.42     0.002 C 
HETATM   36  C12   D T 500       0.148   1.304  13.453  1.00 25.87     0.022 C 
ENDBRANCH   2  32
BRANCH   4  37
HETATM   37  C9    D T 500      -2.676   3.404  13.893  1.00 27.17     0.032 C 
HETATM   38  C10   D T 500      -3.752   3.239  14.999  1.00 25.21     0.003 C 
ENDBRANCH   4  37
TORSDOF 7
