REMARK  3 active torsions:
REMARK  status: ('A' for Active; 'I' for Inactive)
REMARK    1  A    between atoms: C5_5  and  C8_8 
REMARK    2  A    between atoms: C8_8  and  C14_14 
REMARK    3  A    between atoms: C17_17  and  C20_20 
ROOT
HETATM    1  C8    D T1351       6.056  14.224  -1.119  1.00 28.40     0.042 C 
HETATM    2  C9    D T1351       5.926  13.439  -2.442  1.00 31.07     0.046 C 
HETATM    3  C10   D T1351       6.668  14.080  -3.604  1.00 30.89     0.291 C 
HETATM    4  N11   D T1351       8.107  14.227  -3.246  1.00 29.44     0.339 N 
HETATM    5  C12   D T1351       8.283  15.072  -2.029  1.00 30.13     0.291 C 
HETATM    6  C13   D T1351       7.560  14.424  -0.863  1.00 30.34     0.046 C 
ENDROOT
BRANCH   1   7
HETATM    7  C5    D T1351       5.270  15.545  -1.137  1.00 28.95    -0.019 A 
HETATM    8  C4    D T1351       4.227  15.739  -2.041  1.00 28.71    -0.003 A 
HETATM    9  C3    D T1351       3.510  16.915  -2.042  1.00 30.92     0.011 A 
HETATM   10  C2    D T1351       3.804  17.911  -1.129  1.00 30.64     0.058 A 
HETATM   11 CL1    D T1351       2.894  19.389  -1.138  1.00 40.18    -0.082 Cl
HETATM   12  C7    D T1351       4.836  17.728  -0.222  1.00 32.16     0.011 A 
HETATM   13  C6    D T1351       5.558  16.553  -0.220  1.00 28.80    -0.003 A 
ENDBRANCH   1   7
BRANCH   1  14
HETATM   14  C14   D T1351       5.460  13.296  -0.044  1.00 30.67    -0.019 A 
HETATM   15  C15   D T1351       6.222  12.815   1.018  1.00 28.60    -0.004 A 
HETATM   16  C16   D T1351       5.670  11.950   1.939  1.00 33.11    -0.000 A 
HETATM   17  C17   D T1351       4.341  11.557   1.833  1.00 31.57     0.003 A 
HETATM   18  C18   D T1351       3.591  12.016   0.761  1.00 28.36    -0.000 A 
HETATM   19  C19   D T1351       4.142  12.875  -0.164  1.00 26.27    -0.004 A 
BRANCH  17  20
HETATM   20  C20   D T1351       3.771  10.577   2.766  1.00 34.09     0.042 A 
HETATM   21  C21   D T1351       4.466   9.749   3.658  1.00 35.67     0.124 A 
HETATM   22  N22   D T1351       3.636   8.927   4.301  1.00 33.11    -0.146 NA
HETATM   23  N23   D T1351       2.408   9.192   3.786  1.00 34.31    -0.146 NA
HETATM   24  C24   D T1351       2.465  10.163   2.856  1.00 32.13     0.124 A 
ENDBRANCH  17  20
ENDBRANCH   1  14
TORSDOF 3
