REMARK  3 active torsions:
REMARK  status: ('A' for Active; 'I' for Inactive)
REMARK    1  A    between atoms: C5_5  and  C8_8 
REMARK    2  A    between atoms: C8_8  and  C14_14 
REMARK    3  A    between atoms: C17_17  and  C20_20 
ROOT
HETATM    1  C8    D T1351     -13.331   4.058  -3.302  1.00 28.40     0.042 C 
HETATM    2  C9    D T1351     -13.063   3.580  -1.858  1.00 31.07     0.046 C 
HETATM    3  C10   D T1351     -14.224   3.835  -0.910  1.00 30.89     0.291 C 
HETATM    4  N11   D T1351     -15.447   3.169  -1.442  1.00 29.44     0.339 N 
HETATM    5  C12   D T1351     -15.803   3.683  -2.796  1.00 30.13     0.291 C 
HETATM    6  C13   D T1351     -14.654   3.413  -3.750  1.00 30.34     0.046 C 
ENDROOT
BRANCH   1   7
HETATM    7  C5    D T1351     -13.340   5.591  -3.423  1.00 28.95    -0.019 A 
HETATM    8  C4    D T1351     -12.723   6.384  -2.458  1.00 28.71    -0.003 A 
HETATM    9  C3    D T1351     -12.714   7.757  -2.578  1.00 30.92     0.011 A 
HETATM   10  C2    D T1351     -13.299   8.363  -3.675  1.00 30.64     0.058 A 
HETATM   11 CL1    D T1351     -13.282  10.093  -3.819  1.00 40.18    -0.082 Cl
HETATM   12  C7    D T1351     -13.913   7.585  -4.644  1.00 32.16     0.011 A 
HETATM   13  C6    D T1351     -13.926   6.210  -4.524  1.00 28.80    -0.003 A 
ENDBRANCH   1   7
BRANCH   1  14
HETATM   14  C14   D T1351     -12.164   3.492  -4.132  1.00 30.67    -0.019 A 
HETATM   15  C15   D T1351     -12.369   2.591  -5.173  1.00 28.60    -0.004 A 
HETATM   16  C16   D T1351     -11.300   2.069  -5.868  1.00 33.11    -0.000 A 
HETATM   17  C17   D T1351     -10.000   2.445  -5.552  1.00 31.57     0.003 A 
HETATM   18  C18   D T1351      -9.794   3.324  -4.500  1.00 28.36    -0.000 A 
HETATM   19  C19   D T1351     -10.861   3.841  -3.800  1.00 26.27    -0.004 A 
BRANCH  17  20
HETATM   20  C20   D T1351      -8.854   1.835  -6.238  1.00 34.09     0.042 A 
HETATM   21  C21   D T1351      -8.859   0.690  -7.046  1.00 35.67     0.124 A 
HETATM   22  N22   D T1351      -7.626   0.375  -7.446  1.00 33.11    -0.146 NA
HETATM   23  N23   D T1351      -6.818   1.291  -6.854  1.00 34.31    -0.146 NA
HETATM   24  C24   D T1351      -7.526   2.164  -6.113  1.00 32.13     0.124 A 
ENDBRANCH  17  20
ENDBRANCH   1  14
TORSDOF 3
