REMARK  3 active torsions:
REMARK  status: ('A' for Active; 'I' for Inactive)
REMARK    1  A    between atoms: C5_5  and  C8_8 
REMARK    2  A    between atoms: C8_8  and  C14_14 
REMARK    3  A    between atoms: C17_17  and  C20_20 
ROOT
HETATM    1  C8    D T1351       9.623  -1.292  -3.764  1.00 28.40     0.042 C 
HETATM    2  C9    D T1351       8.486  -1.477  -2.736  1.00 31.07     0.046 C 
HETATM    3  C10   D T1351       8.900  -2.277  -1.511  1.00 30.89     0.291 C 
HETATM    4  N11   D T1351      10.062  -1.610  -0.859  1.00 29.44     0.339 N 
HETATM    5  C12   D T1351      11.224  -1.509  -1.790  1.00 30.13     0.291 C 
HETATM    6  C13   D T1351      10.820  -0.694  -3.005  1.00 30.34     0.046 C 
ENDROOT
BRANCH   1   7
HETATM    7  C5    D T1351       9.971  -2.598  -4.499  1.00 28.95    -0.019 A 
HETATM    8  C4    D T1351       9.058  -3.649  -4.551  1.00 28.71    -0.003 A 
HETATM    9  C3    D T1351       9.363  -4.810  -5.227  1.00 30.92     0.011 A 
HETATM   10  C2    D T1351      10.573  -4.935  -5.885  1.00 30.64     0.058 A 
HETATM   11 CL1    D T1351      10.947  -6.401  -6.736  1.00 40.18    -0.082 Cl
HETATM   12  C7    D T1351      11.487  -3.894  -5.845  1.00 32.16     0.011 A 
HETATM   13  C6    D T1351      11.187  -2.732  -5.165  1.00 28.80    -0.003 A 
ENDBRANCH   1   7
BRANCH   1  14
HETATM   14  C14   D T1351       9.081  -0.269  -4.779  1.00 30.67    -0.019 A 
HETATM   15  C15   D T1351       9.693   0.966  -4.977  1.00 28.60    -0.004 A 
HETATM   16  C16   D T1351       9.157   1.878  -5.861  1.00 33.11    -0.000 A 
HETATM   17  C17   D T1351       8.008   1.574  -6.581  1.00 31.57     0.003 A 
HETATM   18  C18   D T1351       7.386   0.354  -6.365  1.00 28.36    -0.000 A 
HETATM   19  C19   D T1351       7.915  -0.556  -5.477  1.00 26.27    -0.004 A 
BRANCH  17  20
HETATM   20  C20   D T1351       7.390   2.570  -7.466  1.00 34.09     0.042 A 
HETATM   21  C21   D T1351       7.664   3.943  -7.521  1.00 35.67     0.124 A 
HETATM   22  N22   D T1351       6.863   4.561  -8.390  1.00 33.11    -0.146 NA
HETATM   23  N23   D T1351       6.038   3.592  -8.861  1.00 34.31    -0.146 NA
HETATM   24  C24   D T1351       6.323   2.396  -8.312  1.00 32.13     0.124 A 
ENDBRANCH  17  20
ENDBRANCH   1  14
TORSDOF 3
