REMARK  3 active torsions:
REMARK  status: ('A' for Active; 'I' for Inactive)
REMARK    1  A    between atoms: C5_5  and  C8_8 
REMARK    2  A    between atoms: C8_8  and  C14_14 
REMARK    3  A    between atoms: C17_17  and  C20_20 
ROOT
HETATM    1  C8    D T1351       3.874   7.794   5.850  1.00 28.40     0.042 C 
HETATM    2  C9    D T1351       4.070   7.204   4.437  1.00 31.07     0.046 C 
HETATM    3  C10   D T1351       5.051   7.990   3.581  1.00 30.89     0.291 C 
HETATM    4  N11   D T1351       6.364   8.063   4.282  1.00 29.44     0.339 N 
HETATM    5  C12   D T1351       6.236   8.727   5.612  1.00 30.13     0.291 C 
HETATM    6  C13   D T1351       5.273   7.933   6.475  1.00 30.34     0.046 C 
ENDROOT
BRANCH   1   7
HETATM    7  C5    D T1351       3.090   9.117   5.832  1.00 28.95    -0.019 A 
HETATM    8  C4    D T1351       2.284   9.451   4.746  1.00 28.71    -0.003 A 
HETATM    9  C3    D T1351       1.566  10.627   4.740  1.00 30.92     0.011 A 
HETATM   10  C2    D T1351       1.620  11.481   5.827  1.00 30.64     0.058 A 
HETATM   11 CL1    D T1351       0.712  12.960   5.811  1.00 40.18    -0.082 Cl
HETATM   12  C7    D T1351       2.415  11.158   6.915  1.00 32.16     0.011 A 
HETATM   13  C6    D T1351       3.138   9.982   6.923  1.00 28.80    -0.003 A 
ENDBRANCH   1   7
BRANCH   1  14
HETATM   14  C14   D T1351       3.060   6.734   6.615  1.00 30.67    -0.019 A 
HETATM   15  C15   D T1351       3.560   6.099   7.748  1.00 28.60    -0.004 A 
HETATM   16  C16   D T1351       2.825   5.123   8.385  1.00 33.11    -0.000 A 
HETATM   17  C17   D T1351       1.565   4.768   7.917  1.00 31.57     0.003 A 
HETATM   18  C18   D T1351       1.077   5.384   6.775  1.00 28.36    -0.000 A 
HETATM   19  C19   D T1351       1.814   6.355   6.133  1.00 26.27    -0.004 A 
BRANCH  17  20
HETATM   20  C20   D T1351       0.810   3.677   8.546  1.00 34.09     0.042 A 
HETATM   21  C21   D T1351       1.292   2.722   9.451  1.00 35.67     0.124 A 
HETATM   22  N22   D T1351       0.349   1.831   9.762  1.00 33.11    -0.146 NA
HETATM   23  N23   D T1351      -0.729   2.184   9.016  1.00 34.31    -0.146 NA
HETATM   24  C24   D T1351      -0.473   3.274   8.269  1.00 32.13     0.124 A 
ENDBRANCH  17  20
ENDBRANCH   1  14
TORSDOF 3
