REMARK  3 active torsions:
REMARK  status: ('A' for Active; 'I' for Inactive)
REMARK    1  A    between atoms: C5_5  and  C8_8 
REMARK    2  A    between atoms: C8_8  and  C14_14 
REMARK    3  A    between atoms: C17_17  and  C20_20 
ROOT
HETATM    1  C8    D T1351      -0.094  -1.718  10.480  1.00 28.40     0.042 C 
HETATM    2  C9    D T1351       0.327  -1.560   9.004  1.00 31.07     0.046 C 
HETATM    3  C10   D T1351       1.819  -1.333   8.819  1.00 30.89     0.291 C 
HETATM    4  N11   D T1351       2.568  -2.463   9.437  1.00 29.44     0.339 N 
HETATM    5  C12   D T1351       2.270  -2.583  10.894  1.00 30.13     0.291 C 
HETATM    6  C13   D T1351       0.784  -2.830  11.080  1.00 30.34     0.046 C 
ENDROOT
BRANCH   1   7
HETATM    7  C5    D T1351      -0.007  -0.397  11.263  1.00 28.95    -0.019 A 
HETATM    8  C4    D T1351      -0.008   0.826  10.595  1.00 28.71    -0.003 A 
HETATM    9  C3    D T1351       0.050   2.009  11.298  1.00 30.92     0.011 A 
HETATM   10  C2    D T1351       0.085   1.996  12.681  1.00 30.64     0.058 A 
HETATM   11 CL1    D T1351       0.155   3.492  13.558  1.00 40.18    -0.082 Cl
HETATM   12  C7    D T1351       0.081   0.786  13.357  1.00 32.16     0.011 A 
HETATM   13  C6    D T1351       0.028  -0.401  12.655  1.00 28.80    -0.003 A 
ENDBRANCH   1   7
BRANCH   1  14
HETATM   14  C14   D T1351      -1.562  -2.180  10.429  1.00 30.67    -0.019 A 
HETATM   15  C15   D T1351      -1.966  -3.408  10.946  1.00 28.60    -0.004 A 
HETATM   16  C16   D T1351      -3.281  -3.811  10.845  1.00 33.11    -0.000 A 
HETATM   17  C17   D T1351      -4.227  -2.992  10.240  1.00 31.57     0.003 A 
HETATM   18  C18   D T1351      -3.819  -1.780   9.705  1.00 28.36    -0.000 A 
HETATM   19  C19   D T1351      -2.506  -1.379   9.799  1.00 26.27    -0.004 A 
BRANCH  17  20
HETATM   20  C20   D T1351      -5.611  -3.449  10.062  1.00 34.09     0.042 A 
HETATM   21  C21   D T1351      -6.100  -4.755  10.203  1.00 35.67     0.124 A 
HETATM   22  N22   D T1351      -7.395  -4.823   9.893  1.00 33.11    -0.146 NA
HETATM   23  N23   D T1351      -7.730  -3.567   9.503  1.00 34.31    -0.146 NA
HETATM   24  C24   D T1351      -6.678  -2.731   9.580  1.00 32.13     0.124 A 
ENDBRANCH  17  20
ENDBRANCH   1  14
TORSDOF 3
