REMARK  3 active torsions:
REMARK  status: ('A' for Active; 'I' for Inactive)
REMARK    1  A    between atoms: C5_5  and  C8_8 
REMARK    2  A    between atoms: C8_8  and  C14_14 
REMARK    3  A    between atoms: C17_17  and  C20_20 
ROOT
HETATM    1  C8    D T1351      -7.827  -3.672  -5.976  1.00 28.40     0.042 C 
HETATM    2  C9    D T1351      -8.165  -3.307  -4.515  1.00 31.07     0.046 C 
HETATM    3  C10   D T1351      -9.603  -2.851  -4.320  1.00 30.89     0.291 C 
HETATM    4  N11   D T1351     -10.525  -3.920  -4.797  1.00 29.44     0.339 N 
HETATM    5  C12   D T1351     -10.303  -4.227  -6.240  1.00 30.13     0.291 C 
HETATM    6  C13   D T1351      -8.875  -4.702  -6.435  1.00 30.34     0.046 C 
ENDROOT
BRANCH   1   7
HETATM    7  C5    D T1351      -7.759  -2.437  -6.891  1.00 28.95    -0.019 A 
HETATM    8  C4    D T1351      -7.562  -1.166  -6.356  1.00 28.71    -0.003 A 
HETATM    9  C3    D T1351      -7.481  -0.064  -7.178  1.00 30.92     0.011 A 
HETATM   10  C2    D T1351      -7.571  -0.210  -8.550  1.00 30.64     0.058 A 
HETATM   11 CL1    D T1351      -7.465   1.184  -9.578  1.00 40.18    -0.082 Cl
HETATM   12  C7    D T1351      -7.762  -1.470  -9.095  1.00 32.16     0.011 A 
HETATM   13  C6    D T1351      -7.847  -2.576  -8.274  1.00 28.80    -0.003 A 
ENDBRANCH   1   7
BRANCH   1  14
HETATM   14  C14   D T1351      -6.437  -4.331  -5.912  1.00 30.67    -0.019 A 
HETATM   15  C15   D T1351      -6.228  -5.650  -6.306  1.00 28.60    -0.004 A 
HETATM   16  C16   D T1351      -4.980  -6.224  -6.194  1.00 33.11    -0.000 A 
HETATM   17  C17   D T1351      -3.906  -5.492  -5.702  1.00 31.57     0.003 A 
HETATM   18  C18   D T1351      -4.120  -4.187  -5.287  1.00 28.36    -0.000 A 
HETATM   19  C19   D T1351      -5.367  -3.613  -5.392  1.00 26.27    -0.004 A 
BRANCH  17  20
HETATM   20  C20   D T1351      -2.594  -6.121  -5.510  1.00 34.09     0.042 A 
HETATM   21  C21   D T1351      -2.298  -7.491  -5.524  1.00 35.67     0.124 A 
HETATM   22  N22   D T1351      -1.014  -7.712  -5.239  1.00 33.11    -0.146 NA
HETATM   23  N23   D T1351      -0.492  -6.484  -4.992  1.00 34.31    -0.146 NA
HETATM   24  C24   D T1351      -1.420  -5.518  -5.131  1.00 32.13     0.124 A 
ENDBRANCH  17  20
ENDBRANCH   1  14
TORSDOF 3
