REMARK  3 active torsions:
REMARK  status: ('A' for Active; 'I' for Inactive)
REMARK    1  A    between atoms: C5_5  and  C8_8 
REMARK    2  A    between atoms: C8_8  and  C14_14 
REMARK    3  A    between atoms: C17_17  and  C20_20 
ROOT
HETATM    1  C8    D T1351       8.062   3.702  -4.613  1.00 28.40     0.042 C 
HETATM    2  C9    D T1351       7.201   3.394  -3.369  1.00 31.07     0.046 C 
HETATM    3  C10   D T1351       7.840   3.840  -2.064  1.00 30.89     0.291 C 
HETATM    4  N11   D T1351       8.123   5.302  -2.130  1.00 29.44     0.339 N 
HETATM    5  C12   D T1351       9.042   5.629  -3.259  1.00 30.13     0.291 C 
HETATM    6  C13   D T1351       8.398   5.203  -4.566  1.00 30.34     0.046 C 
ENDROOT
BRANCH   1   7
HETATM    7  C5    D T1351       9.312   2.810  -4.701  1.00 28.95    -0.019 A 
HETATM    8  C4    D T1351       9.372   1.601  -4.010  1.00 28.71    -0.003 A 
HETATM    9  C3    D T1351      10.484   0.793  -4.106  1.00 30.92     0.011 A 
HETATM   10  C2    D T1351      11.547   1.164  -4.910  1.00 30.64     0.058 A 
HETATM   11 CL1    D T1351      12.942   0.139  -5.026  1.00 40.18    -0.082 Cl
HETATM   12  C7    D T1351      11.496   2.361  -5.606  1.00 32.16     0.011 A 
HETATM   13  C6    D T1351      10.386   3.174  -5.509  1.00 28.80    -0.003 A 
ENDBRANCH   1   7
BRANCH   1  14
HETATM   14  C14   D T1351       7.145   3.407  -5.815  1.00 30.67    -0.019 A 
HETATM   15  C15   D T1351       6.785   4.397  -6.726  1.00 28.60    -0.004 A 
HETATM   16  C16   D T1351       5.927   4.111  -7.766  1.00 33.11    -0.000 A 
HETATM   17  C17   D T1351       5.420   2.827  -7.933  1.00 31.57     0.003 A 
HETATM   18  C18   D T1351       5.761   1.849  -7.012  1.00 28.36    -0.000 A 
HETATM   19  C19   D T1351       6.612   2.134  -5.968  1.00 26.27    -0.004 A 
BRANCH  17  20
HETATM   20  C20   D T1351       4.447   2.536  -8.994  1.00 34.09     0.042 A 
HETATM   21  C21   D T1351       3.727   3.459  -9.762  1.00 35.67     0.124 A 
HETATM   22  N22   D T1351       2.874   2.844 -10.583  1.00 33.11    -0.146 NA
HETATM   23  N23   D T1351       3.010   1.522 -10.307  1.00 34.31    -0.146 NA
HETATM   24  C24   D T1351       3.932   1.313  -9.349  1.00 32.13     0.124 A 
ENDBRANCH  17  20
ENDBRANCH   1  14
TORSDOF 3
