REMARK  3 active torsions:
REMARK  status: ('A' for Active; 'I' for Inactive)
REMARK    1  A    between atoms: C5_5  and  C8_8 
REMARK    2  A    between atoms: C8_8  and  C14_14 
REMARK    3  A    between atoms: C17_17  and  C20_20 
ROOT
HETATM    1  C8    D T1480      -7.629  -3.009  -6.241  1.00 24.84     0.042 C 
HETATM    2  C9    D T1480      -7.874  -2.269  -4.907  1.00 24.83     0.046 C 
HETATM    3  C10   D T1480      -8.300  -3.197  -3.790  1.00 24.63     0.291 C 
HETATM    4  N11   D T1480      -9.611  -3.740  -4.233  1.00 23.69     0.339 N 
HETATM    5  C12   D T1480      -9.372  -4.662  -5.378  1.00 25.57     0.291 C 
HETATM    6  C13   D T1480      -8.876  -3.850  -6.560  1.00 27.98     0.046 C 
ENDROOT
BRANCH   1   7
HETATM    7  C5    D T1480      -7.543  -1.943  -7.334  1.00 27.86    -0.019 A 
HETATM    8  C4    D T1480      -7.539  -0.586  -7.013  1.00 28.73    -0.003 A 
HETATM    9  C3    D T1480      -7.486   0.368  -8.005  1.00 37.49     0.011 A 
HETATM   10  C2    D T1480      -7.446  -0.017  -9.332  1.00 34.69     0.058 A 
HETATM   11 CL1    D T1480      -7.393   1.182 -10.582  1.00 50.48    -0.082 Cl
HETATM   12  C7    D T1480      -7.477  -1.364  -9.659  1.00 40.09     0.011 A 
HETATM   13  C6    D T1480      -7.537  -2.321  -8.667  1.00 30.28    -0.003 A 
ENDBRANCH   1   7
BRANCH   1  14
HETATM   14  C14   D T1480      -6.326  -3.832  -6.164  1.00 24.09    -0.019 A 
HETATM   15  C15   D T1480      -6.119  -5.017  -6.862  1.00 24.10    -0.004 A 
HETATM   16  C16   D T1480      -4.925  -5.713  -6.732  1.00 25.21    -0.000 A 
HETATM   17  C17   D T1480      -3.915  -5.232  -5.908  1.00 22.67     0.003 A 
HETATM   18  C18   D T1480      -4.126  -4.054  -5.224  1.00 26.22    -0.000 A 
HETATM   19  C19   D T1480      -5.306  -3.363  -5.351  1.00 25.71    -0.004 A 
BRANCH  17  20
HETATM   20  C20   D T1480      -2.644  -5.944  -5.720  1.00 20.81     0.042 A 
HETATM   21  C21   D T1480      -2.366  -7.297  -5.905  1.00 10.94     0.124 A 
HETATM   22  N22   D T1480      -1.088  -7.586  -5.589  1.00 19.16    -0.146 NA
HETATM   23  N23   D T1480      -0.536  -6.410  -5.172  1.00 25.24    -0.146 NA
HETATM   24  C24   D T1480      -1.447  -5.403  -5.226  1.00 21.20     0.124 A 
ENDBRANCH  17  20
ENDBRANCH   1  14
TORSDOF 3
