REMARK  3 active torsions:
REMARK  status: ('A' for Active; 'I' for Inactive)
REMARK    1  A    between atoms: C5_5  and  C8_8 
REMARK    2  A    between atoms: C8_8  and  C14_14 
REMARK    3  A    between atoms: C17_17  and  C20_20 
ROOT
HETATM    1  C8    D T1480       8.721   2.995  -4.355  1.00 24.84     0.042 C 
HETATM    2  C9    D T1480       8.055   2.361  -3.113  1.00 24.83     0.046 C 
HETATM    3  C10   D T1480       6.940   3.212  -2.545  1.00 24.63     0.291 C 
HETATM    4  N11   D T1480       7.614   4.456  -2.089  1.00 23.69     0.339 N 
HETATM    5  C12   D T1480       8.053   5.217  -3.291  1.00 25.57     0.291 C 
HETATM    6  C13   D T1480       9.142   4.429  -3.995  1.00 27.98     0.046 C 
ENDROOT
BRANCH   1   7
HETATM    7  C5    D T1480      10.015   2.222  -4.613  1.00 27.86    -0.019 A 
HETATM    8  C4    D T1480      10.323   1.077  -3.881  1.00 28.73    -0.003 A 
HETATM    9  C3    D T1480      11.502   0.401  -4.102  1.00 37.49     0.011 A 
HETATM   10  C2    D T1480      12.396   0.862  -5.050  1.00 34.69     0.058 A 
HETATM   11 CL1    D T1480      13.886   0.021  -5.320  1.00 50.48    -0.082 Cl
HETATM   12  C7    D T1480      12.108   2.016  -5.763  1.00 40.09     0.011 A 
HETATM   13  C6    D T1480      10.930   2.699  -5.537  1.00 30.28    -0.003 A 
ENDBRANCH   1   7
BRANCH   1  14
HETATM   14  C14   D T1480       7.773   2.912  -5.570  1.00 24.09    -0.019 A 
HETATM   15  C15   D T1480       7.753   3.847  -6.600  1.00 24.10    -0.004 A 
HETATM   16  C16   D T1480       6.861   3.716  -7.655  1.00 25.21    -0.000 A 
HETATM   17  C17   D T1480       5.979   2.644  -7.703  1.00 22.67     0.003 A 
HETATM   18  C18   D T1480       6.008   1.718  -6.682  1.00 26.22    -0.000 A 
HETATM   19  C19   D T1480       6.890   1.845  -5.637  1.00 25.71    -0.004 A 
BRANCH  17  20
HETATM   20  C20   D T1480       5.002   2.475  -8.787  1.00 20.81     0.042 A 
HETATM   21  C21   D T1480       4.468   3.439  -9.639  1.00 10.94     0.124 A 
HETATM   22  N22   D T1480       3.562   2.905 -10.483  1.00 19.16    -0.146 NA
HETATM   23  N23   D T1480       3.490   1.582 -10.157  1.00 25.24    -0.146 NA
HETATM   24  C24   D T1480       4.334   1.290  -9.133  1.00 21.20     0.124 A 
ENDBRANCH  17  20
ENDBRANCH   1  14
TORSDOF 3
