REMARK  3 active torsions:
REMARK  status: ('A' for Active; 'I' for Inactive)
REMARK    1  A    between atoms: C5_5  and  C8_8 
REMARK    2  A    between atoms: C8_8  and  C14_14 
REMARK    3  A    between atoms: C17_17  and  C20_20 
ROOT
HETATM    1  C8    D T1480     -13.174   4.970  -3.109  1.00 24.84     0.042 C 
HETATM    2  C9    D T1480     -12.779   4.861  -1.619  1.00 24.83     0.046 C 
HETATM    3  C10   D T1480     -12.974   3.468  -1.060  1.00 24.63     0.291 C 
HETATM    4  N11   D T1480     -14.439   3.235  -1.139  1.00 23.69     0.339 N 
HETATM    5  C12   D T1480     -14.813   3.088  -2.573  1.00 25.57     0.291 C 
HETATM    6  C13   D T1480     -14.600   4.419  -3.269  1.00 27.98     0.046 C 
ENDROOT
BRANCH   1   7
HETATM    7  C5    D T1480     -13.251   6.460  -3.443  1.00 27.86    -0.019 A 
HETATM    8  C4    D T1480     -12.852   7.423  -2.518  1.00 28.73    -0.003 A 
HETATM    9  C3    D T1480     -12.949   8.764  -2.818  1.00 37.49     0.011 A 
HETATM   10  C2    D T1480     -13.454   9.165  -4.040  1.00 34.69     0.058 A 
HETATM   11 CL1    D T1480     -13.590  10.850  -4.414  1.00 50.48    -0.082 Cl
HETATM   12  C7    D T1480     -13.879   8.212  -4.954  1.00 40.09     0.011 A 
HETATM   13  C6    D T1480     -13.789   6.868  -4.652  1.00 30.28    -0.003 A 
ENDBRANCH   1   7
BRANCH   1  14
HETATM   14  C14   D T1480     -12.129   4.257  -3.992  1.00 24.09    -0.019 A 
HETATM   15  C15   D T1480     -12.430   3.645  -5.204  1.00 24.10    -0.004 A 
HETATM   16  C16   D T1480     -11.440   3.008  -5.939  1.00 25.21    -0.000 A 
HETATM   17  C17   D T1480     -10.130   2.978  -5.478  1.00 22.67     0.003 A 
HETATM   18  C18   D T1480      -9.837   3.591  -4.279  1.00 26.22    -0.000 A 
HETATM   19  C19   D T1480     -10.815   4.222  -3.550  1.00 25.71    -0.004 A 
BRANCH  17  20
HETATM   20  C20   D T1480      -9.052   2.297  -6.209  1.00 20.81     0.042 A 
HETATM   21  C21   D T1480      -9.146   1.267  -7.142  1.00 10.94     0.124 A 
HETATM   22  N22   D T1480      -7.929   0.872  -7.565  1.00 19.16    -0.146 NA
HETATM   23  N23   D T1480      -7.033   1.640  -6.879  1.00 25.24    -0.146 NA
HETATM   24  C24   D T1480      -7.674   2.500  -6.046  1.00 21.20     0.124 A 
ENDBRANCH  17  20
ENDBRANCH   1  14
TORSDOF 3
