REMARK  3 active torsions:
REMARK  status: ('A' for Active; 'I' for Inactive)
REMARK    1  A    between atoms: C5_5  and  C8_8 
REMARK    2  A    between atoms: C8_8  and  C14_14 
REMARK    3  A    between atoms: C17_17  and  C20_20 
ROOT
HETATM    1  C8    D T1480       3.413   8.582   5.474  1.00 24.84     0.042 C 
HETATM    2  C9    D T1480       3.314   8.235   3.972  1.00 24.83     0.046 C 
HETATM    3  C10   D T1480       4.255   7.123   3.562  1.00 24.63     0.291 C 
HETATM    4  N11   D T1480       5.614   7.679   3.791  1.00 23.69     0.339 N 
HETATM    5  C12   D T1480       5.831   7.793   5.260  1.00 25.57     0.291 C 
HETATM    6  C13   D T1480       4.890   8.848   5.809  1.00 27.98     0.046 C 
ENDROOT
BRANCH   1   7
HETATM    7  C5    D T1480       2.682   9.910   5.676  1.00 27.86    -0.019 A 
HETATM    8  C4    D T1480       1.967  10.499   4.635  1.00 28.73    -0.003 A 
HETATM    9  C3    D T1480       1.333  11.708   4.818  1.00 37.49     0.011 A 
HETATM   10  C2    D T1480       1.411  12.352   6.038  1.00 34.69     0.058 A 
HETATM   11 CL1    D T1480       0.626  13.879   6.266  1.00 50.48    -0.082 Cl
HETATM   12  C7    D T1480       2.144  11.784   7.070  1.00 40.09     0.011 A 
HETATM   13  C6    D T1480       2.786  10.577   6.886  1.00 30.28    -0.003 A 
ENDBRANCH   1   7
BRANCH   1  14
HETATM   14  C14   D T1480       2.775   7.463   6.325  1.00 24.09    -0.019 A 
HETATM   15  C15   D T1480       3.194   7.135   7.609  1.00 24.10    -0.004 A 
HETATM   16  C16   D T1480       2.582   6.104   8.310  1.00 25.21    -0.000 A 
HETATM   17  C17   D T1480       1.536   5.389   7.740  1.00 22.67     0.003 A 
HETATM   18  C18   D T1480       1.123   5.724   6.469  1.00 26.22    -0.000 A 
HETATM   19  C19   D T1480       1.726   6.743   5.774  1.00 25.71    -0.004 A 
BRANCH  17  20
HETATM   20  C20   D T1480       0.873   4.276   8.432  1.00 20.81     0.042 A 
HETATM   21  C21   D T1480       1.361   3.473   9.461  1.00 10.94     0.124 A 
HETATM   22  N22   D T1480       0.471   2.522   9.810  1.00 19.16    -0.146 NA
HETATM   23  N23   D T1480      -0.599   2.697   8.981  1.00 25.24    -0.146 NA
HETATM   24  C24   D T1480      -0.386   3.736   8.131  1.00 21.20     0.124 A 
ENDBRANCH  17  20
ENDBRANCH   1  14
TORSDOF 3
