REMARK  3 active torsions:
REMARK  status: ('A' for Active; 'I' for Inactive)
REMARK    1  A    between atoms: C5_5  and  C8_8 
REMARK    2  A    between atoms: C8_8  and  C14_14 
REMARK    3  A    between atoms: C17_17  and  C20_20 
ROOT
HETATM    1  C8    D T1480       5.421  14.898  -1.397  1.00 24.84     0.042 C 
HETATM    2  C9    D T1480       4.991  14.353  -2.777  1.00 24.83     0.046 C 
HETATM    3  C10   D T1480       5.831  13.180  -3.233  1.00 24.63     0.291 C 
HETATM    4  N11   D T1480       7.199  13.738  -3.393  1.00 23.69     0.339 N 
HETATM    5  C12   D T1480       7.740  14.046  -2.040  1.00 25.57     0.291 C 
HETATM    6  C13   D T1480       6.931  15.182  -1.441  1.00 27.98     0.046 C 
ENDROOT
BRANCH   1   7
HETATM    7  C5    D T1480       4.737  16.254  -1.218  1.00 27.86    -0.019 A 
HETATM    8  C4    D T1480       3.797  16.709  -2.142  1.00 28.73    -0.003 A 
HETATM    9  C3    D T1480       3.204  17.943  -1.988  1.00 37.49     0.011 A 
HETATM   10  C2    D T1480       3.546  18.744  -0.915  1.00 34.69     0.058 A 
HETATM   11 CL1    D T1480       2.812  20.302  -0.726  1.00 50.48    -0.082 Cl
HETATM   12  C7    D T1480       4.500  18.309  -0.007  1.00 40.09     0.011 A 
HETATM   13  C6    D T1480       5.101  17.077  -0.165  1.00 30.28    -0.003 A 
ENDBRANCH   1   7
BRANCH   1  14
HETATM   14  C14   D T1480       5.006  13.916  -0.281  1.00 24.09    -0.019 A 
HETATM   15  C15   D T1480       5.707  13.758   0.909  1.00 24.10    -0.004 A 
HETATM   16  C16   D T1480       5.283  12.842   1.862  1.00 25.21    -0.000 A 
HETATM   17  C17   D T1480       4.145  12.075   1.644  1.00 22.67     0.003 A 
HETATM   18  C18   D T1480       3.452  12.242   0.465  1.00 26.22    -0.000 A 
HETATM   19  C19   D T1480       3.870  13.147  -0.479  1.00 25.71    -0.004 A 
BRANCH  17  20
HETATM   20  C20   D T1480       3.669  11.078   2.613  1.00 20.81     0.042 A 
HETATM   21  C21   D T1480       4.387  10.413   3.605  1.00 10.94     0.124 A 
HETATM   22  N22   D T1480       3.611   9.534   4.271  1.00 19.16    -0.146 NA
HETATM   23  N23   D T1480       2.380   9.613   3.687  1.00 25.24    -0.146 NA
HETATM   24  C24   D T1480       2.382  10.523   2.678  1.00 21.20     0.124 A 
ENDBRANCH  17  20
ENDBRANCH   1  14
TORSDOF 3
