REMARK  3 active torsions:
REMARK  status: ('A' for Active; 'I' for Inactive)
REMARK    1  A    between atoms: C5_5  and  C8_8 
REMARK    2  A    between atoms: C8_8  and  C14_14 
REMARK    3  A    between atoms: C17_17  and  C20_20 
ROOT
HETATM    1  C8    D T1480      -0.021  -0.750  10.641  1.00 24.84     0.042 C 
HETATM    2  C9    D T1480       0.331  -0.205   9.239  1.00 24.83     0.046 C 
HETATM    3  C10   D T1480       0.640  -1.300   8.242  1.00 24.63     0.291 C 
HETATM    4  N11   D T1480       1.863  -1.956   8.773  1.00 23.69     0.339 N 
HETATM    5  C12   D T1480       1.494  -2.704  10.007  1.00 25.57     0.291 C 
HETATM    6  C13   D T1480       1.100  -1.706  11.080  1.00 27.98     0.046 C 
ENDROOT
BRANCH   1   7
HETATM    7  C5    D T1480       0.025   0.435  11.607  1.00 27.86    -0.019 A 
HETATM    8  C4    D T1480       0.204   1.734  11.138  1.00 28.73    -0.003 A 
HETATM    9  C3    D T1480       0.270   2.793  12.016  1.00 37.49     0.011 A 
HETATM   10  C2    D T1480       0.167   2.569  13.377  1.00 34.69     0.058 A 
HETATM   11 CL1    D T1480       0.264   3.897  14.485  1.00 50.48    -0.082 Cl
HETATM   12  C7    D T1480       0.017   1.275  13.852  1.00 40.09     0.011 A 
HETATM   13  C6    D T1480      -0.042   0.213  12.973  1.00 30.28    -0.003 A 
ENDBRANCH   1   7
BRANCH   1  14
HETATM   14  C14   D T1480      -1.421  -1.399  10.625  1.00 24.09    -0.019 A 
HETATM   15  C15   D T1480      -1.790  -2.460  11.445  1.00 24.10    -0.004 A 
HETATM   16  C16   D T1480      -3.065  -3.005  11.365  1.00 25.21    -0.000 A 
HETATM   17  C17   D T1480      -3.994  -2.492  10.469  1.00 22.67     0.003 A 
HETATM   18  C18   D T1480      -3.624  -1.436   9.664  1.00 26.22    -0.000 A 
HETATM   19  C19   D T1480      -2.364  -0.896   9.741  1.00 25.71    -0.004 A 
BRANCH  17  20
HETATM   20  C20   D T1480      -5.347  -3.048  10.331  1.00 20.81     0.042 A 
HETATM   21  C21   D T1480      -5.804  -4.323  10.658  1.00 10.94     0.124 A 
HETATM   22  N22   D T1480      -7.106  -4.476  10.347  1.00 19.16    -0.146 NA
HETATM   23  N23   D T1480      -7.493  -3.292   9.789  1.00 25.24    -0.146 NA
HETATM   24  C24   D T1480      -6.457  -2.414   9.753  1.00 21.20     0.124 A 
ENDBRANCH  17  20
ENDBRANCH   1  14
TORSDOF 3
