REMARK  3 active torsions:
REMARK  status: ('A' for Active; 'I' for Inactive)
REMARK    1  A    between atoms: C5_5  and  C8_8 
REMARK    2  A    between atoms: C8_8  and  C14_14 
REMARK    3  A    between atoms: C17_17  and  C20_20 
ROOT
HETATM    1  C8    D T1480       9.540  -2.186  -4.086  1.00 24.84     0.042 C 
HETATM    2  C9    D T1480       8.342  -2.689  -3.249  1.00 24.83     0.046 C 
HETATM    3  C10   D T1480       7.944  -1.724  -2.153  1.00 24.63     0.291 C 
HETATM    4  N11   D T1480       9.120  -1.682  -1.246  1.00 23.69     0.339 N 
HETATM    5  C12   D T1480      10.226  -0.973  -1.947  1.00 25.57     0.291 C 
HETATM    6  C13   D T1480      10.680  -1.821  -3.120  1.00 27.98     0.046 C 
ENDROOT
BRANCH   1   7
HETATM    7  C5    D T1480      10.041  -3.374  -4.909  1.00 27.86    -0.019 A 
HETATM    8  C4    D T1480       9.343  -4.581  -4.922  1.00 28.73    -0.003 A 
HETATM    9  C3    D T1480       9.815  -5.654  -5.646  1.00 37.49     0.011 A 
HETATM   10  C2    D T1480      10.994  -5.541  -6.359  1.00 34.69     0.058 A 
HETATM   11 CL1    D T1480      11.596  -6.894  -7.259  1.00 50.48    -0.082 Cl
HETATM   12  C7    D T1480      11.706  -4.352  -6.328  1.00 40.09     0.011 A 
HETATM   13  C6    D T1480      11.239  -3.279  -5.597  1.00 30.28    -0.003 A 
ENDBRANCH   1   7
BRANCH   1  14
HETATM   14  C14   D T1480       9.103  -1.023  -5.000  1.00 24.09    -0.019 A 
HETATM   15  C15   D T1480       9.946   0.011  -5.391  1.00 24.10    -0.004 A 
HETATM   16  C16   D T1480       9.479   1.035  -6.204  1.00 25.21    -0.000 A 
HETATM   17  C17   D T1480       8.161   1.038  -6.645  1.00 22.67     0.003 A 
HETATM   18  C18   D T1480       7.333   0.007  -6.258  1.00 26.22    -0.000 A 
HETATM   19  C19   D T1480       7.793  -1.007  -5.454  1.00 25.71    -0.004 A 
BRANCH  17  20
HETATM   20  C20   D T1480       7.614   2.110  -7.487  1.00 20.81     0.042 A 
HETATM   21  C21   D T1480       8.062   3.422  -7.630  1.00 10.94     0.124 A 
HETATM   22  N22   D T1480       7.272   4.125  -8.467  1.00 19.16    -0.146 NA
HETATM   23  N23   D T1480       6.286   3.264  -8.852  1.00 25.24    -0.146 NA
HETATM   24  C24   D T1480       6.454   2.047  -8.273  1.00 21.20     0.124 A 
ENDBRANCH  17  20
ENDBRANCH   1  14
TORSDOF 3
