REMARK  6 active torsions:
REMARK  status: ('A' for Active; 'I' for Inactive)
REMARK       I    between atoms: N1_1  and  C25_25 
REMARK    1  A    between atoms: C3_3  and  N5_5 
REMARK       I    between atoms: N5_5  and  C6_6 
REMARK    2  A    between atoms: C6_6  and  C7_7 
REMARK    3  A    between atoms: N17_17  and  C24_24 
REMARK    4  A    between atoms: C25_25  and  C20_32 
REMARK    5  A    between atoms: C27_27  and  C20_32 
REMARK    6  A    between atoms: C20_32  and  O34_35 
ROOT
HETATM    1  N1    D T1504       0.370   5.838   7.206  1.00 17.57    -0.308 N 
HETATM    2  N2    D T1504      -0.385   2.784   9.001  1.00 15.62    -0.149 NA
HETATM    3  C3    D T1504       1.707   3.342   9.548  1.00 16.85     0.186 A 
HETATM    4  N4    D T1504       0.773   2.390   9.725  1.00 16.47    -0.129 NA
HETATM    5  C13   D T1504      -0.104   3.968   8.419  1.00 16.13     0.104 A 
HETATM    6  C14   D T1504       1.236   4.354   8.736  1.00 16.03     0.055 A 
HETATM    7  C15   D T1504       1.585   5.645   8.063  1.00 17.80     0.136 C 
HETATM    8  C16   D T1504      -0.767   4.943   7.509  1.00 15.77     0.152 C 
HETATM    9  C25   D T1504       0.260   6.744   6.222  1.00 17.72     0.266 C 
HETATM   10  O26   D T1504      -0.763   6.860   5.550  1.00 20.29    -0.269 OA
ENDROOT
BRANCH   3  11
HETATM   11  N5    D T1504       2.944   3.194  10.135  1.00 18.99    -0.187 NA
HETATM   12  C6    D T1504       3.831   4.155  10.338  1.00 22.32     0.281 C 
HETATM   13  O8    D T1504       3.655   5.324  10.053  1.00 19.91    -0.265 OA
BRANCH  12  14
HETATM   14  C7    D T1504       5.114   3.776  10.971  1.00 23.69     0.058 A 
HETATM   15  C9    D T1504       6.193   4.625  10.781  1.00 24.20     0.006 A 
HETATM   16  C10   D T1504       7.420   4.351  11.349  1.00 24.36     0.017 A 
HETATM   17  C24   D T1504       7.552   3.205  12.101  1.00 26.38     0.060 A 
HETATM   18  C11   D T1504       6.458   2.339  12.288  1.00 25.51     0.017 A 
HETATM   19  C12   D T1504       5.225   2.619  11.728  1.00 23.62     0.006 A 
BRANCH  17  20
HETATM   20  N17   D T1504       8.800   2.924  12.684  1.00 29.22    -0.324 N 
HETATM   21  C18   D T1504       9.870   3.511  12.315  1.00 32.43     0.088 C 
HETATM   22  C19   D T1504      10.952   2.750  12.100  1.00 34.59     0.066 C 
HETATM   23  N20   D T1504      11.075   1.438  12.684  1.00 35.81    -0.247 NA
HETATM   24  C21   D T1504       9.772   0.851  13.105  1.00 34.06     0.101 C 
HETATM   25  C23   D T1504      11.714   0.496  11.744  1.00 33.95     0.094 C 
HETATM   26  C22   D T1504       8.870   1.908  13.739  1.00 31.87     0.124 C 
ENDBRANCH  17  20
ENDBRANCH  12  14
ENDBRANCH   3  11
BRANCH   9  27
HETATM   27  C20   D T1504       1.429   7.631   5.925  1.00 16.01     0.216 C 
BRANCH  27  28
HETATM   28  C27   D T1504       2.429   6.827   5.158  1.00 17.19     0.014 A 
HETATM   29  C28   D T1504       3.787   6.833   5.557  1.00 16.33    -0.001 A 
HETATM   30  C31   D T1504       4.722   6.063   4.868  1.00 15.88    -0.000 A 
HETATM   31  C35   D T1504       4.294   5.295   3.766  1.00 16.13    -0.000 A 
HETATM   32  C33   D T1504       2.955   5.289   3.361  1.00 13.90    -0.000 A 
HETATM   33  C29   D T1504       2.027   6.058   4.046  1.00 15.13    -0.001 A 
ENDBRANCH  27  28
BRANCH  27  34
HETATM   34  O34   D T1504       0.959   8.778   5.213  1.00 17.91    -0.340 OA
HETATM   35  C36   D T1504       1.976   9.758   4.924  1.00 15.51     0.175 C 
ENDBRANCH  27  34
ENDBRANCH   9  27
TORSDOF 6
