REMARK  6 active torsions:
REMARK  status: ('A' for Active; 'I' for Inactive)
REMARK       I    between atoms: N1_1  and  C25_25 
REMARK    1  A    between atoms: C3_3  and  N5_5 
REMARK       I    between atoms: N5_5  and  C6_6 
REMARK    2  A    between atoms: C6_6  and  C7_7 
REMARK    3  A    between atoms: N17_17  and  C24_24 
REMARK    4  A    between atoms: C25_25  and  C20_32 
REMARK    5  A    between atoms: C27_27  and  C20_32 
REMARK    6  A    between atoms: C20_32  and  O34_35 
ROOT
HETATM    1  N1    D T1504       7.401   0.158  -7.166  1.00 17.57    -0.308 N 
HETATM    2  N2    D T1504       6.374   3.327  -8.585  1.00 15.62    -0.149 NA
HETATM    3  C3    D T1504       8.111   3.762  -7.252  1.00 16.85     0.186 A 
HETATM    4  N4    D T1504       7.192   4.352  -8.038  1.00 16.47    -0.129 NA
HETATM    5  C13   D T1504       6.838   2.154  -8.111  1.00 16.13     0.104 A 
HETATM    6  C14   D T1504       7.946   2.391  -7.239  1.00 16.03     0.055 A 
HETATM    7  C15   D T1504       8.451   1.104  -6.665  1.00 17.80     0.136 C 
HETATM    8  C16   D T1504       6.492   0.707  -8.194  1.00 15.77     0.152 C 
HETATM    9  C25   D T1504       7.250  -1.110  -6.753  1.00 17.72     0.266 C 
HETATM   10  O26   D T1504       6.370  -1.844  -7.200  1.00 20.29    -0.269 OA
ENDROOT
BRANCH   3  11
HETATM   11  N5    D T1504       9.027   4.541  -6.579  1.00 18.99    -0.187 NA
HETATM   12  C6    D T1504      10.167   4.124  -6.053  1.00 22.32     0.281 C 
HETATM   13  O8    D T1504      10.578   2.981  -6.120  1.00 19.91    -0.265 OA
BRANCH  12  14
HETATM   14  C7    D T1504      11.001   5.127  -5.352  1.00 23.69     0.058 A 
HETATM   15  C9    D T1504      11.926   4.654  -4.433  1.00 24.20     0.006 A 
HETATM   16  C10   D T1504      12.750   5.522  -3.748  1.00 24.36     0.017 A 
HETATM   17  C24   D T1504      12.627   6.872  -3.990  1.00 26.38     0.060 A 
HETATM   18  C11   D T1504      11.683   7.352  -4.918  1.00 25.51     0.017 A 
HETATM   19  C12   D T1504      10.863   6.482  -5.613  1.00 23.62     0.006 A 
BRANCH  17  20
HETATM   20  N17   D T1504      13.467   7.759  -3.296  1.00 29.22    -0.324 N 
HETATM   21  C18   D T1504      14.121   7.406  -2.260  1.00 32.43     0.088 C 
HETATM   22  C19   D T1504      14.094   8.226  -1.200  1.00 34.59     0.066 C 
HETATM   23  N20   D T1504      13.761   9.621  -1.338  1.00 35.81    -0.247 NA
HETATM   24  C21   D T1504      13.022   9.933  -2.593  1.00 34.06     0.101 C 
HETATM   25  C23   D T1504      12.943  10.088  -0.202  1.00 33.95     0.094 C 
HETATM   26  C22   D T1504      13.580   9.141  -3.774  1.00 31.87     0.124 C 
ENDBRANCH  17  20
ENDBRANCH  12  14
ENDBRANCH   3  11
BRANCH   9  27
HETATM   27  C20   D T1504       8.175  -1.641  -5.702  1.00 16.01     0.216 C 
BRANCH  27  28
HETATM   28  C27   D T1504       7.730  -1.092  -4.383  1.00 17.19     0.014 A 
HETATM   29  C28   D T1504       8.678  -0.500  -3.516  1.00 16.33    -0.001 A 
HETATM   30  C31   D T1504       8.270   0.042  -2.298  1.00 15.88    -0.000 A 
HETATM   31  C35   D T1504       6.906  -0.024  -1.946  1.00 16.13    -0.000 A 
HETATM   32  C33   D T1504       5.964  -0.614  -2.795  1.00 13.90    -0.000 A 
HETATM   33  C29   D T1504       6.373  -1.155  -4.003  1.00 15.13    -0.001 A 
ENDBRANCH  27  28
BRANCH  27  34
HETATM   34  O34   D T1504       8.153  -3.069  -5.757  1.00 17.91    -0.340 OA
HETATM   35  C36   D T1504       9.058  -3.715  -4.840  1.00 15.51     0.175 C 
ENDBRANCH  27  34
ENDBRANCH   9  27
TORSDOF 6
