REMARK  6 active torsions:
REMARK  status: ('A' for Active; 'I' for Inactive)
REMARK       I    between atoms: N1_1  and  C25_25 
REMARK    1  A    between atoms: C3_3  and  N5_5 
REMARK       I    between atoms: N5_5  and  C6_6 
REMARK    2  A    between atoms: C6_6  and  C7_7 
REMARK    3  A    between atoms: N17_17  and  C24_24 
REMARK    4  A    between atoms: C25_25  and  C20_32 
REMARK    5  A    between atoms: C27_27  and  C20_32 
REMARK    6  A    between atoms: C20_32  and  O34_35 
ROOT
HETATM    1  N1    D T1504       6.176   1.239  -7.719  1.00 17.57    -0.308 N 
HETATM    2  N2    D T1504       3.549   1.634 -10.180  1.00 15.62    -0.149 NA
HETATM    3  C3    D T1504       4.297   3.686  -9.714  1.00 16.85     0.186 A 
HETATM    4  N4    D T1504       3.367   3.022 -10.425  1.00 16.47    -0.129 NA
HETATM    5  C13   D T1504       4.591   1.515  -9.333  1.00 16.13     0.104 A 
HETATM    6  C14   D T1504       5.092   2.812  -8.999  1.00 16.03     0.055 A 
HETATM    7  C15   D T1504       6.222   2.706  -8.023  1.00 17.80     0.136 C 
HETATM    8  C16   D T1504       5.321   0.432  -8.616  1.00 15.77     0.152 C 
HETATM    9  C25   D T1504       6.845   0.640  -6.721  1.00 17.72     0.266 C 
HETATM   10  O26   D T1504       6.772  -0.571  -6.518  1.00 20.29    -0.269 OA
ENDROOT
BRANCH   3  11
HETATM   11  N5    D T1504       4.330   5.063  -9.760  1.00 18.99    -0.187 NA
HETATM   12  C6    D T1504       5.347   5.831  -9.407  1.00 22.32     0.281 C 
HETATM   13  O8    D T1504       6.421   5.413  -9.015  1.00 19.91    -0.265 OA
BRANCH  12  14
HETATM   14  C7    D T1504       5.166   7.296  -9.517  1.00 23.69     0.058 A 
HETATM   15  C9    D T1504       5.999   8.098  -8.753  1.00 24.20     0.006 A 
HETATM   16  C10   D T1504       5.904   9.473  -8.808  1.00 24.36     0.017 A 
HETATM   17  C24   D T1504       4.953  10.032  -9.632  1.00 26.38     0.060 A 
HETATM   18  C11   D T1504       4.101   9.216 -10.402  1.00 25.51     0.017 A 
HETATM   19  C12   D T1504       4.204   7.838 -10.355  1.00 23.62     0.006 A 
BRANCH  17  20
HETATM   20  N17   D T1504       4.854  11.432  -9.693  1.00 29.22    -0.324 N 
HETATM   21  C18   D T1504       5.393  12.190  -8.821  1.00 32.43     0.088 C 
HETATM   22  C19   D T1504       4.648  13.188  -8.322  1.00 34.59     0.066 C 
HETATM   23  N20   D T1504       3.498  13.691  -9.029  1.00 35.81    -0.247 NA
HETATM   24  C21   D T1504       2.962  12.742 -10.043  1.00 34.06     0.101 C 
HETATM   25  C23   D T1504       2.404  14.023  -8.095  1.00 33.95     0.094 C 
HETATM   26  C22   D T1504       4.092  12.037 -10.791  1.00 31.87     0.124 C 
ENDBRANCH  17  20
ENDBRANCH  12  14
ENDBRANCH   3  11
BRANCH   9  27
HETATM   27  C20   D T1504       7.696   1.479  -5.819  1.00 16.01     0.216 C 
BRANCH  27  28
HETATM   28  C27   D T1504       6.788   2.190  -4.867  1.00 17.19     0.014 A 
HETATM   29  C28   D T1504       6.936   3.583  -4.668  1.00 16.33    -0.001 A 
HETATM   30  C31   D T1504       6.075   4.262  -3.806  1.00 15.88    -0.000 A 
HETATM   31  C35   D T1504       5.072   3.535  -3.133  1.00 16.13    -0.000 A 
HETATM   32  C33   D T1504       4.924   2.157  -3.319  1.00 13.90    -0.000 A 
HETATM   33  C29   D T1504       5.782   1.484  -4.174  1.00 15.13    -0.001 A 
ENDBRANCH  27  28
BRANCH  27  34
HETATM   34  O34   D T1504       8.643   0.628  -5.169  1.00 17.91    -0.340 OA
HETATM   35  C36   D T1504       9.580   1.320  -4.319  1.00 15.51     0.175 C 
ENDBRANCH  27  34
ENDBRANCH   9  27
TORSDOF 6
