REMARK  6 active torsions:
REMARK  status: ('A' for Active; 'I' for Inactive)
REMARK    1  A    between atoms: N24_6  and  C23_7 
REMARK    2  A    between atoms: C23_7  and  C20_8 
REMARK    3  A    between atoms: C7_13  and  C3_14 
REMARK    4  A    between atoms: C2_15  and  C8_16 
REMARK       I    between atoms: C8_16  and  N10_18 
REMARK    5  A    between atoms: N10_18  and  C11_19 
REMARK    6  A    between atoms: C14_26  and  C30_27 
ROOT
HETATM    1  C3    D T1225      27.316   0.174 -28.324  1.00 60.49     0.050 A 
HETATM    2  C2    D T1225      28.375   1.001 -28.637  1.00 56.94     0.167 A 
HETATM    3  N1    D T1225      28.032   1.740 -29.706  1.00 55.74    -0.121 NA
HETATM    4  O5    D T1225      26.697   1.391 -30.148  1.00 52.53    -0.211 OA
HETATM    5  C4    D T1225      26.289   0.429 -29.272  1.00 50.46     0.129 A 
HETATM    6  C6    D T1225      25.041  -0.199 -29.274  1.00 48.66     0.050 A 
HETATM    7  C13   D T1225      25.103  -1.564 -29.126  1.00 44.51     0.002 A 
HETATM    8  C14   D T1225      23.963  -2.335 -29.087  1.00 44.70     0.003 A 
HETATM    9  C15   D T1225      22.721  -1.725 -29.232  1.00 45.62     0.129 A 
HETATM   10  O34   D T1225      21.597  -2.482 -29.193  1.00 46.39    -0.190 OA
HETATM   11  C16   D T1225      22.654  -0.335 -29.380  1.00 45.91     0.054 A 
HETATM   12  C17   D T1225      23.796   0.446 -29.395  1.00 43.24     0.135 A 
HETATM   13  O33   D T1225      23.653   1.786 -29.550  1.00 42.89    -0.190 OA
ENDROOT
BRANCH   1  14
HETATM   14  C7    D T1225      27.221  -0.766 -27.270  1.00 63.18     0.004 A 
HETATM   15  C22   D T1225      26.304  -0.502 -26.230  1.00 62.88    -0.000 A 
HETATM   16  C21   D T1225      26.143  -1.439 -25.213  1.00 64.62    -0.002 A 
HETATM   17  C20   D T1225      26.900  -2.627 -25.243  1.00 65.93     0.011 A 
HETATM   18  C19   D T1225      27.817  -2.891 -26.273  1.00 64.88    -0.002 A 
HETATM   19  C18   D T1225      27.982  -1.956 -27.291  1.00 63.15    -0.000 A 
BRANCH  17  20
HETATM   20  C23   D T1225      26.732  -3.645 -24.124  1.00 67.22     0.277 C 
BRANCH  20  21
HETATM   21  N24   D T1225      26.985  -3.057 -22.802  1.00 73.24     0.147 N 
HETATM   22  C25   D T1225      26.116  -3.849 -21.880  1.00 75.32     0.283 C 
HETATM   23  C26   D T1225      26.643  -3.880 -20.434  1.00 77.70     0.178 C 
HETATM   24  O27   D T1225      28.049  -4.248 -20.479  1.00 78.67    -0.350 OA
HETATM   25  C28   D T1225      28.882  -3.256 -21.165  1.00 77.39     0.178 C 
HETATM   26  C29   D T1225      28.463  -3.147 -22.638  1.00 74.72     0.283 C 
ENDBRANCH  20  21
ENDBRANCH  17  20
ENDBRANCH   1  14
BRANCH   2  27
HETATM   27  C8    D T1225      29.713   1.021 -27.896  1.00 56.27     0.295 C 
HETATM   28  O9    D T1225      29.758   0.584 -26.741  1.00 60.50    -0.264 OA
HETATM   29  N10   D T1225      30.745   1.493 -28.660  1.00 57.38    -0.233 NA
BRANCH  29  30
HETATM   30  C11   D T1225      32.177   1.654 -28.315  1.00 54.04     0.129 C 
HETATM   31  C12   D T1225      32.577   0.714 -27.180  1.00 54.74     0.029 C 
ENDBRANCH  29  30
ENDBRANCH   2  27
BRANCH   8  32
HETATM   32  C30   D T1225      24.089  -3.835 -29.008  1.00 42.80     0.024 C 
HETATM   33  C32   D T1225      24.203  -4.148 -30.515  1.00 33.52     0.005 C 
HETATM   34  C31   D T1225      25.319  -4.333 -28.229  1.00 39.45     0.005 C 
ENDBRANCH   8  32
TORSDOF 6
