REMARK  6 active torsions:
REMARK  status: ('A' for Active; 'I' for Inactive)
REMARK    1  A    between atoms: N24_6  and  C23_7 
REMARK    2  A    between atoms: C23_7  and  C20_8 
REMARK    3  A    between atoms: C7_13  and  C3_14 
REMARK    4  A    between atoms: C2_15  and  C8_16 
REMARK       I    between atoms: C8_16  and  N10_18 
REMARK    5  A    between atoms: N10_18  and  C11_19 
REMARK    6  A    between atoms: C14_26  and  C30_27 
ROOT
HETATM    1  C3    D T1225      27.487   0.597 -28.431  1.00 60.49     0.050 A 
HETATM    2  C2    D T1225      28.486   1.479 -28.789  1.00 56.94     0.167 A 
HETATM    3  N1    D T1225      28.108   2.111 -29.913  1.00 55.74    -0.121 NA
HETATM    4  O5    D T1225      26.812   1.629 -30.346  1.00 52.53    -0.211 OA
HETATM    5  C4    D T1225      26.461   0.704 -29.409  1.00 50.46     0.129 A 
HETATM    6  C6    D T1225      25.265  -0.017 -29.381  1.00 48.66     0.050 A 
HETATM    7  C13   D T1225      25.427  -1.359 -29.133  1.00 44.51     0.002 A 
HETATM    8  C14   D T1225      24.349  -2.211 -29.054  1.00 44.70     0.003 A 
HETATM    9  C15   D T1225      23.067  -1.710 -29.259  1.00 45.62     0.129 A 
HETATM   10  O34   D T1225      22.003  -2.546 -29.180  1.00 46.39    -0.190 OA
HETATM   11  C16   D T1225      22.898  -0.343 -29.509  1.00 45.91     0.054 A 
HETATM   12  C17   D T1225      23.977   0.520 -29.565  1.00 43.24     0.135 A 
HETATM   13  O33   D T1225      23.736   1.831 -29.820  1.00 42.89    -0.190 OA
ENDROOT
BRANCH   1  14
HETATM   14  C7    D T1225      27.443  -0.269 -27.313  1.00 63.18     0.004 A 
HETATM   15  C22   D T1225      26.490  -0.003 -26.307  1.00 62.88    -0.000 A 
HETATM   16  C21   D T1225      26.381  -0.875 -25.226  1.00 64.62    -0.002 A 
HETATM   17  C20   D T1225      27.226  -1.999 -25.160  1.00 65.93     0.011 A 
HETATM   18  C19   D T1225      28.180  -2.265 -26.155  1.00 64.88    -0.002 A 
HETATM   19  C18   D T1225      28.292  -1.395 -27.236  1.00 63.15    -0.000 A 
BRANCH  17  20
HETATM   20  C23   D T1225      27.114  -2.944 -23.971  1.00 67.22     0.277 C 
BRANCH  20  21
HETATM   21  N24   D T1225      27.297  -2.246 -22.692  1.00 73.24     0.147 N 
HETATM   22  C25   D T1225      26.474  -3.034 -21.728  1.00 75.32     0.283 C 
HETATM   23  C26   D T1225      26.974  -2.921 -20.276  1.00 77.70     0.178 C 
HETATM   24  O27   D T1225      28.404  -3.182 -20.275  1.00 78.67    -0.350 OA
HETATM   25  C28   D T1225      29.173  -2.181 -21.021  1.00 77.39     0.178 C 
HETATM   26  C29   D T1225      28.775  -2.210 -22.503  1.00 74.72     0.283 C 
ENDBRANCH  20  21
ENDBRANCH  17  20
ENDBRANCH   1  14
BRANCH   2  27
HETATM   27  C8    D T1225      29.805   1.654 -28.033  1.00 56.27     0.295 C 
HETATM   28  O9    D T1225      29.860   1.306 -26.849  1.00 60.50    -0.264 OA
HETATM   29  N10   D T1225      30.812   2.148 -28.816  1.00 57.38    -0.233 NA
BRANCH  29  30
HETATM   30  C11   D T1225      32.220   2.444 -28.465  1.00 54.04     0.129 C 
HETATM   31  C12   D T1225      32.670   1.620 -27.259  1.00 54.74     0.029 C 
ENDBRANCH  29  30
ENDBRANCH   2  27
BRANCH   8  32
HETATM   32  C30   D T1225      24.586  -3.686 -28.864  1.00 42.80     0.024 C 
HETATM   33  C32   D T1225      24.752  -4.097 -30.342  1.00 33.52     0.005 C 
HETATM   34  C31   D T1225      25.835  -4.032 -28.034  1.00 39.45     0.005 C 
ENDBRANCH   8  32
TORSDOF 6
