REMARK  6 active torsions:
REMARK  status: ('A' for Active; 'I' for Inactive)
REMARK    1  A    between atoms: N24_6  and  C23_7 
REMARK    2  A    between atoms: C23_7  and  C20_8 
REMARK    3  A    between atoms: C7_13  and  C3_14 
REMARK    4  A    between atoms: C2_15  and  C8_16 
REMARK       I    between atoms: C8_16  and  N10_18 
REMARK    5  A    between atoms: N10_18  and  C11_19 
REMARK    6  A    between atoms: C14_26  and  C30_27 
ROOT
HETATM    1  C3    D T1225      27.474   0.005 -28.512  1.00 60.49     0.050 A 
HETATM    2  C2    D T1225      28.513   0.848 -28.848  1.00 56.94     0.167 A 
HETATM    3  N1    D T1225      28.162   1.536 -29.948  1.00 55.74    -0.121 NA
HETATM    4  O5    D T1225      26.842   1.132 -30.388  1.00 52.53    -0.211 OA
HETATM    5  C4    D T1225      26.450   0.195 -29.480  1.00 50.46     0.129 A 
HETATM    6  C6    D T1225      25.221  -0.468 -29.468  1.00 48.66     0.050 A 
HETATM    7  C13   D T1225      25.318  -1.824 -29.266  1.00 44.51     0.002 A 
HETATM    8  C14   D T1225      24.199  -2.624 -29.208  1.00 44.70     0.003 A 
HETATM    9  C15   D T1225      22.943  -2.055 -29.389  1.00 45.62     0.129 A 
HETATM   10  O34   D T1225      21.840  -2.840 -29.330  1.00 46.39    -0.190 OA
HETATM   11  C16   D T1225      22.840  -0.673 -29.592  1.00 45.91     0.054 A 
HETATM   12  C17   D T1225      23.959   0.138 -29.627  1.00 43.24     0.135 A 
HETATM   13  O33   D T1225      23.782   1.466 -29.836  1.00 42.89    -0.190 OA
ENDROOT
BRANCH   1  14
HETATM   14  C7    D T1225      27.394  -0.894 -27.423  1.00 63.18     0.004 A 
HETATM   15  C22   D T1225      26.459  -0.616 -26.403  1.00 62.88    -0.000 A 
HETATM   16  C21   D T1225      26.313  -1.517 -25.351  1.00 64.62    -0.002 A 
HETATM   17  C20   D T1225      27.102  -2.683 -25.327  1.00 65.93     0.011 A 
HETATM   18  C19   D T1225      28.037  -2.962 -26.337  1.00 64.88    -0.002 A 
HETATM   19  C18   D T1225      28.187  -2.063 -27.389  1.00 63.15    -0.000 A 
BRANCH  17  20
HETATM   20  C23   D T1225      26.949  -3.661 -24.170  1.00 67.22     0.277 C 
BRANCH  20  21
HETATM   21  N24   D T1225      27.172  -3.015 -22.870  1.00 73.24     0.147 N 
HETATM   22  C25   D T1225      26.315  -3.794 -21.927  1.00 75.32     0.283 C 
HETATM   23  C26   D T1225      26.828  -3.754 -20.475  1.00 77.70     0.178 C 
HETATM   24  O27   D T1225      28.243  -4.084 -20.492  1.00 78.67    -0.350 OA
HETATM   25  C28   D T1225      29.056  -3.097 -21.209  1.00 77.39     0.178 C 
HETATM   26  C29   D T1225      28.651  -3.058 -22.689  1.00 74.72     0.283 C 
ENDBRANCH  20  21
ENDBRANCH  17  20
ENDBRANCH   1  14
BRANCH   2  27
HETATM   27  C8    D T1225      29.843   0.934 -28.094  1.00 56.27     0.295 C 
HETATM   28  O9    D T1225      29.887   0.544 -26.923  1.00 60.50    -0.264 OA
HETATM   29  N10   D T1225      30.870   1.404 -28.866  1.00 57.38    -0.233 NA
BRANCH  29  30
HETATM   30  C11   D T1225      32.292   1.619 -28.515  1.00 54.04     0.129 C 
HETATM   31  C12   D T1225      32.706   0.735 -27.340  1.00 54.74     0.029 C 
ENDBRANCH  29  30
ENDBRANCH   2  27
BRANCH   8  32
HETATM   32  C30   D T1225      24.365  -4.115 -29.069  1.00 42.80     0.024 C 
HETATM   33  C32   D T1225      24.504  -4.483 -30.560  1.00 33.52     0.005 C 
HETATM   34  C31   D T1225      25.600  -4.548 -28.258  1.00 39.45     0.005 C 
ENDBRANCH   8  32
TORSDOF 6
