REMARK  10 active torsions:
REMARK  status: ('A' for Active; 'I' for Inactive)
REMARK    1  A    between atoms: NBL_6  and  CAS_7 
REMARK    2  A    between atoms: CAS_7  and  CAO_8 
REMARK    3  A    between atoms: CAO_8  and  CAP_9 
REMARK    4  A    between atoms: CAP_9  and  OBB_10 
REMARK    5  A    between atoms: OBB_10  and  CBH_11 
REMARK    6  A    between atoms: CBG_13  and  OAZ_14 
REMARK    7  A    between atoms: C6_22  and  NAY_23 
REMARK    8  A    between atoms: NAY_23  and  CBE_24 
REMARK    9  A    between atoms: CBD_29  and  NAX_30 
REMARK       I    between atoms: NAX_30  and  CBC_31 
REMARK   10  A    between atoms: CBC_31  and  CBF_33 
ROOT
HETATM    1  CBH   D T1356       4.699   3.194  11.304  1.00 30.53     0.118 A 
HETATM    2  CAM   D T1356       3.467   2.529  11.294  1.00 29.88     0.045 A 
HETATM    3  CBG   D T1356       4.812   4.448  10.672  1.00 30.48     0.117 A 
HETATM    4  CAN   D T1356       3.714   5.021  10.030  1.00 29.67     0.031 A 
HETATM    5  C5    D T1356       2.481   4.362  10.020  1.00 29.79     0.056 A 
HETATM    6  C4    D T1356       2.365   3.113  10.656  1.00 29.99     0.088 A 
HETATM    7  N3    D T1356       1.190   2.464  10.656  1.00 29.16    -0.224 NA
HETATM    8  C2    D T1356       0.070   3.018  10.025  1.00 30.02     0.200 A 
HETATM    9  N1    D T1356       0.180   4.268   9.394  1.00 29.74    -0.205 NA
HETATM   10  C6    D T1356       1.356   4.922   9.390  1.00 29.94     0.166 A 
ENDROOT
BRANCH  10  11
HETATM   11  NAY   D T1356       1.517   6.126   8.781  1.00 31.31    -0.227 NA
BRANCH  11  12
HETATM   12  CBE   D T1356       0.515   6.671   8.038  1.00 32.67     0.083 A 
HETATM   13  CAK   D T1356       0.225   8.031   8.173  1.00 33.73     0.021 A 
HETATM   14  CAI   D T1356      -0.791   8.624   7.418  1.00 34.14     0.021 A 
HETATM   15  CBD   D T1356      -1.526   7.869   6.493  1.00 33.99     0.085 A 
HETATM   16  CAH   D T1356      -1.239   6.511   6.360  1.00 33.61     0.021 A 
HETATM   17  CAJ   D T1356      -0.225   5.923   7.117  1.00 33.42     0.021 A 
BRANCH  15  18
HETATM   18  NAX   D T1356      -2.538   8.389   5.756  1.00 34.41    -0.208 NA
HETATM   19  CBC   D T1356      -2.622   9.715   5.490  1.00 37.04     0.279 C 
HETATM   20  OAB   D T1356      -1.806  10.565   5.861  1.00 38.15    -0.265 OA
BRANCH  19  21
HETATM   21  CBF   D T1356      -3.738  10.088   4.737  1.00 37.03     0.058 A 
HETATM   22  CAF   D T1356      -3.859  11.398   4.268  1.00 38.06     0.005 A 
HETATM   23  CAD   D T1356      -4.974  11.775   3.525  1.00 38.28     0.000 A 
HETATM   24  CAC   D T1356      -5.976  10.847   3.247  1.00 38.02     0.000 A 
HETATM   25  CAE   D T1356      -5.856   9.538   3.707  1.00 37.90     0.000 A 
HETATM   26  CAG   D T1356      -4.744   9.163   4.457  1.00 37.23     0.005 A 
ENDBRANCH  19  21
ENDBRANCH  15  18
ENDBRANCH  11  12
ENDBRANCH  10  11
BRANCH   3  27
HETATM   27  OAZ   D T1356       6.028   5.092  10.663  1.00 30.66    -0.326 OA
HETATM   28  CAA   D T1356       6.593   5.416  11.936  1.00 33.36     0.181 C 
ENDBRANCH   3  27
BRANCH   1  29
HETATM   29  OBB   D T1356       5.831   2.698  11.903  1.00 30.55    -0.329 OA
BRANCH  29  30
HETATM   30  CAP   D T1356       5.725   1.557  12.784  1.00 33.72     0.151 C 
BRANCH  30  31
HETATM   31  CAO   D T1356       7.060   1.367  13.529  1.00 37.07     0.068 C 
BRANCH  31  32
HETATM   32  CAS   D T1356       7.895   0.314  12.786  1.00 39.71     0.253 C 
BRANCH  32  33
HETATM   33  NBL   D T1356       9.303   0.120  13.210  1.00 41.70     0.142 N 
HETATM   34  CAT   D T1356       9.491  -0.127  14.658  1.00 43.12     0.282 C 
HETATM   35  CAQ   D T1356      10.972  -0.445  14.952  1.00 43.52     0.178 C 
HETATM   36  OBA   D T1356      11.739  -0.499  13.698  1.00 44.22    -0.350 OA
HETATM   37  CAR   D T1356      11.672   0.744  12.918  1.00 43.52     0.178 C 
HETATM   38  CAU   D T1356      10.207   1.199  12.755  1.00 42.73     0.282 C 
ENDBRANCH  32  33
ENDBRANCH  31  32
ENDBRANCH  30  31
ENDBRANCH  29  30
ENDBRANCH   1  29
TORSDOF 10
