REMARK  10 active torsions:
REMARK  status: ('A' for Active; 'I' for Inactive)
REMARK    1  A    between atoms: NBL_6  and  CAS_7 
REMARK    2  A    between atoms: CAS_7  and  CAO_8 
REMARK    3  A    between atoms: CAO_8  and  CAP_9 
REMARK    4  A    between atoms: CAP_9  and  OBB_10 
REMARK    5  A    between atoms: OBB_10  and  CBH_11 
REMARK    6  A    between atoms: CBG_13  and  OAZ_14 
REMARK    7  A    between atoms: C6_22  and  NAY_23 
REMARK    8  A    between atoms: NAY_23  and  CBE_24 
REMARK    9  A    between atoms: CBD_29  and  NAX_30 
REMARK       I    between atoms: NAX_30  and  CBC_31 
REMARK   10  A    between atoms: CBC_31  and  CBF_33 
ROOT
HETATM    1  CBH   D T1356       8.657   8.763   4.947  1.00 30.53     0.118 A 
HETATM    2  CAM   D T1356       7.429   8.177   5.277  1.00 29.88     0.045 A 
HETATM    3  CBG   D T1356       8.672   9.966   4.213  1.00 30.48     0.117 A 
HETATM    4  CAN   D T1356       7.480  10.566   3.807  1.00 29.67     0.031 A 
HETATM    5  C5    D T1356       6.251   9.986   4.138  1.00 29.79     0.056 A 
HETATM    6  C4    D T1356       6.235   8.789   4.876  1.00 29.99     0.088 A 
HETATM    7  N3    D T1356       5.065   8.215   5.201  1.00 29.16    -0.224 NA
HETATM    8  C2    D T1356       3.853   8.799   4.813  1.00 30.02     0.200 A 
HETATM    9  N1    D T1356       3.867   9.998   4.082  1.00 29.74    -0.205 NA
HETATM   10  C6    D T1356       5.036  10.575   3.751  1.00 29.94     0.166 A 
ENDROOT
BRANCH  10  11
HETATM   11  NAY   D T1356       5.101  11.727   3.033  1.00 31.31    -0.227 NA
BRANCH  11  12
HETATM   12  CBE   D T1356       3.977  12.287   2.509  1.00 32.67     0.083 A 
HETATM   13  CAK   D T1356       3.791  13.668   2.605  1.00 33.73     0.021 A 
HETATM   14  CAI   D T1356       2.652  14.276   2.069  1.00 34.14     0.021 A 
HETATM   15  CBD   D T1356       1.683  13.512   1.403  1.00 33.99     0.085 A 
HETATM   16  CAH   D T1356       1.866  12.134   1.309  1.00 33.61     0.021 A 
HETATM   17  CAJ   D T1356       3.004  11.531   1.847  1.00 33.42     0.021 A 
BRANCH  15  18
HETATM   18  NAX   D T1356       0.549  14.049   0.889  1.00 34.41    -0.208 NA
HETATM   19  CBC   D T1356       0.465  15.358   0.551  1.00 37.04     0.279 C 
HETATM   20  OAB   D T1356       1.384  16.176   0.654  1.00 38.15    -0.265 OA
BRANCH  19  21
HETATM   21  CBF   D T1356      -0.781  15.753   0.057  1.00 37.03     0.058 A 
HETATM   22  CAF   D T1356      -0.950  17.036  -0.467  1.00 38.06     0.005 A 
HETATM   23  CAD   D T1356      -2.192  17.436  -0.952  1.00 38.28     0.000 A 
HETATM   24  CAC   D T1356      -3.274  16.557  -0.915  1.00 38.02     0.000 A 
HETATM   25  CAE   D T1356      -3.107  15.275  -0.400  1.00 37.90     0.000 A 
HETATM   26  CAG   D T1356      -1.867  14.878   0.093  1.00 37.23     0.005 A 
ENDBRANCH  19  21
ENDBRANCH  15  18
ENDBRANCH  11  12
ENDBRANCH  10  11
BRANCH   3  27
HETATM   27  OAZ   D T1356       9.880  10.530   3.870  1.00 30.66    -0.326 OA
HETATM   28  CAA   D T1356      10.748  10.896   4.945  1.00 33.36     0.181 C 
ENDBRANCH   3  27
BRANCH   1  29
HETATM   29  OBB   D T1356       9.875   8.235   5.297  1.00 30.55    -0.329 OA
BRANCH  29  30
HETATM   30  CAP   D T1356       9.931   7.160   6.262  1.00 33.72     0.151 C 
BRANCH  30  31
HETATM   31  CAO   D T1356      11.395   6.933   6.682  1.00 37.07     0.068 C 
BRANCH  31  32
HETATM   32  CAS   D T1356      11.978   5.785   5.844  1.00 39.71     0.253 C 
BRANCH  32  33
HETATM   33  NBL   D T1356      13.436   5.530   5.937  1.00 41.70     0.142 N 
HETATM   34  CAT   D T1356      13.954   5.362   7.315  1.00 43.12     0.282 C 
HETATM   35  CAQ   D T1356      15.446   4.970   7.275  1.00 43.52     0.178 C 
HETATM   36  OBA   D T1356      15.887   4.791   5.882  1.00 44.22    -0.350 OA
HETATM   37  CAR   D T1356      15.693   5.985   5.049  1.00 43.52     0.178 C 
HETATM   38  CAU   D T1356      14.254   6.520   5.203  1.00 42.73     0.282 C 
ENDBRANCH  32  33
ENDBRANCH  31  32
ENDBRANCH  30  31
ENDBRANCH  29  30
ENDBRANCH   1  29
TORSDOF 10
