REMARK  10 active torsions:
REMARK  status: ('A' for Active; 'I' for Inactive)
REMARK    1  A    between atoms: NBL_6  and  CAS_7 
REMARK    2  A    between atoms: CAS_7  and  CAO_8 
REMARK    3  A    between atoms: CAO_8  and  CAP_9 
REMARK    4  A    between atoms: CAP_9  and  OBB_10 
REMARK    5  A    between atoms: OBB_10  and  CBH_11 
REMARK    6  A    between atoms: CBG_13  and  OAZ_14 
REMARK    7  A    between atoms: C6_22  and  NAY_23 
REMARK    8  A    between atoms: NAY_23  and  CBE_24 
REMARK    9  A    between atoms: CBD_29  and  NAX_30 
REMARK       I    between atoms: NAX_30  and  CBC_31 
REMARK   10  A    between atoms: CBC_31  and  CBF_33 
ROOT
HETATM    1  CBH   D T1356       4.875   7.194  -9.670  1.00 30.53     0.118 A 
HETATM    2  CAM   D T1356       4.182   6.155 -10.302  1.00 29.88     0.045 A 
HETATM    3  CBG   D T1356       5.949   6.885  -8.812  1.00 30.48     0.117 A 
HETATM    4  CAN   D T1356       6.316   5.559  -8.582  1.00 29.67     0.031 A 
HETATM    5  C5    D T1356       5.629   4.518  -9.215  1.00 29.79     0.056 A 
HETATM    6  C4    D T1356       4.561   4.826 -10.076  1.00 29.99     0.088 A 
HETATM    7  N3    D T1356       3.888   3.841 -10.692  1.00 29.16    -0.224 NA
HETATM    8  C2    D T1356       4.238   2.501 -10.485  1.00 30.02     0.200 A 
HETATM    9  N1    D T1356       5.309   2.191  -9.631  1.00 29.74    -0.205 NA
HETATM   10  C6    D T1356       5.985   3.174  -9.010  1.00 29.94     0.166 A 
ENDROOT
BRANCH  10  11
HETATM   11  NAY   D T1356       7.018   2.925  -8.163  1.00 31.31    -0.227 NA
BRANCH  11  12
HETATM   12  CBE   D T1356       7.338   1.650  -7.810  1.00 32.67     0.083 A 
HETATM   13  CAK   D T1356       8.679   1.264  -7.779  1.00 33.73     0.021 A 
HETATM   14  CAI   D T1356       9.043  -0.035  -7.412  1.00 34.14     0.021 A 
HETATM   15  CBD   D T1356       8.066  -0.972  -7.044  1.00 33.99     0.085 A 
HETATM   16  CAH   D T1356       6.726  -0.588  -7.078  1.00 33.61     0.021 A 
HETATM   17  CAJ   D T1356       6.368   0.709  -7.447  1.00 33.42     0.021 A 
BRANCH  15  18
HETATM   18  NAX   D T1356       8.363  -2.250  -6.705  1.00 34.41    -0.208 NA
HETATM   19  CBC   D T1356       9.585  -2.602  -6.240  1.00 37.04     0.279 C 
HETATM   20  OAB   D T1356      10.527  -1.823  -6.063  1.00 38.15    -0.265 OA
BRANCH  19  21
HETATM   21  CBF   D T1356       9.731  -3.964  -5.959  1.00 37.03     0.058 A 
HETATM   22  CAF   D T1356      10.890  -4.427  -5.333  1.00 38.06     0.005 A 
HETATM   23  CAD   D T1356      11.042  -5.784  -5.059  1.00 38.28     0.000 A 
HETATM   24  CAC   D T1356      10.039  -6.686  -5.412  1.00 38.02     0.000 A 
HETATM   25  CAE   D T1356       8.880  -6.226  -6.031  1.00 37.90     0.000 A 
HETATM   26  CAG   D T1356       8.731  -4.870  -6.311  1.00 37.23     0.005 A 
ENDBRANCH  19  21
ENDBRANCH  15  18
ENDBRANCH  11  12
ENDBRANCH  10  11
BRANCH   3  27
HETATM   27  OAZ   D T1356       6.616   7.905  -8.172  1.00 30.66    -0.326 OA
HETATM   28  CAA   D T1356       7.249   8.880  -9.004  1.00 33.36     0.181 C 
ENDBRANCH   3  27
BRANCH   1  29
HETATM   29  OBB   D T1356       4.574   8.524  -9.831  1.00 30.55    -0.329 OA
BRANCH  29  30
HETATM   30  CAP   D T1356       3.668   8.923 -10.885  1.00 33.72     0.151 C 
BRANCH  30  31
HETATM   31  CAO   D T1356       3.706  10.456 -11.031  1.00 37.07     0.068 C 
BRANCH  31  32
HETATM   32  CAS   D T1356       2.539  11.058 -10.235  1.00 39.71     0.253 C 
BRANCH  32  33
HETATM   33  NBL   D T1356       2.499  12.531 -10.067  1.00 41.70     0.142 N 
HETATM   34  CAT   D T1356       2.606  13.305 -11.325  1.00 43.12     0.282 C 
HETATM   35  CAQ   D T1356       2.419  14.810 -11.036  1.00 43.52     0.178 C 
HETATM   36  OBA   D T1356       2.100  15.019  -9.615  1.00 44.22    -0.350 OA
HETATM   37  CAR   D T1356       3.123  14.490  -8.703  1.00 43.52     0.178 C 
HETATM   38  CAU   D T1356       3.474  13.034  -9.074  1.00 42.73     0.282 C 
ENDBRANCH  32  33
ENDBRANCH  31  32
ENDBRANCH  30  31
ENDBRANCH  29  30
ENDBRANCH   1  29
TORSDOF 10
