REMARK  10 active torsions:
REMARK  status: ('A' for Active; 'I' for Inactive)
REMARK    1  A    between atoms: NBL_6  and  CAS_7 
REMARK    2  A    between atoms: CAS_7  and  CAO_8 
REMARK    3  A    between atoms: CAO_8  and  CAP_9 
REMARK    4  A    between atoms: CAP_9  and  OBB_10 
REMARK    5  A    between atoms: OBB_10  and  CBH_11 
REMARK    6  A    between atoms: CBG_13  and  OAZ_14 
REMARK    7  A    between atoms: C6_22  and  NAY_23 
REMARK    8  A    between atoms: NAY_23  and  CBE_24 
REMARK    9  A    between atoms: CBD_29  and  NAX_30 
REMARK       I    between atoms: NAX_30  and  CBC_31 
REMARK   10  A    between atoms: CBC_31  and  CBF_33 
ROOT
HETATM    1  CBH   D T1356      -4.099  -7.695  11.540  1.00 30.53     0.118 A 
HETATM    2  CAM   D T1356      -5.365  -7.272  11.120  1.00 29.88     0.045 A 
HETATM    3  CBG   D T1356      -3.108  -6.733  11.822  1.00 30.48     0.117 A 
HETATM    4  CAN   D T1356      -3.377  -5.373  11.676  1.00 29.67     0.031 A 
HETATM    5  C5    D T1356      -4.643  -4.945  11.260  1.00 29.79     0.056 A 
HETATM    6  C4    D T1356      -5.633  -5.904  10.985  1.00 29.99     0.088 A 
HETATM    7  N3    D T1356      -6.854  -5.513  10.583  1.00 29.16    -0.224 NA
HETATM    8  C2    D T1356      -7.154  -4.154  10.434  1.00 30.02     0.200 A 
HETATM    9  N1    D T1356      -6.168  -3.194  10.715  1.00 29.74    -0.205 NA
HETATM   10  C6    D T1356      -4.943  -3.580  11.116  1.00 29.94     0.166 A 
ENDROOT
BRANCH  10  11
HETATM   11  NAY   D T1356      -3.952  -2.691  11.386  1.00 31.31    -0.227 NA
BRANCH  11  12
HETATM   12  CBE   D T1356      -4.121  -1.362  11.143  1.00 32.67     0.083 A 
HETATM   13  CAK   D T1356      -3.692  -0.432  12.092  1.00 33.73     0.021 A 
HETATM   14  CAI   D T1356      -3.843   0.940  11.870  1.00 34.14     0.021 A 
HETATM   15  CBD   D T1356      -4.410   1.411  10.677  1.00 33.99     0.085 A 
HETATM   16  CAH   D T1356      -4.841   0.483   9.730  1.00 33.61     0.021 A 
HETATM   17  CAJ   D T1356      -4.690  -0.886   9.957  1.00 33.42     0.021 A 
BRANCH  15  18
HETATM   18  NAX   D T1356      -4.603   2.728  10.423  1.00 34.41    -0.208 NA
HETATM   19  CBC   D T1356      -3.872   3.690  11.037  1.00 37.04     0.279 C 
HETATM   20  OAB   D T1356      -2.970   3.481  11.854  1.00 38.15    -0.265 OA
BRANCH  19  21
HETATM   21  CBF   D T1356      -4.213   4.997  10.679  1.00 37.03     0.058 A 
HETATM   22  CAF   D T1356      -3.437   6.069  11.126  1.00 38.06     0.005 A 
HETATM   23  CAD   D T1356      -3.778   7.373  10.778  1.00 38.28     0.000 A 
HETATM   24  CAC   D T1356      -4.900   7.615   9.986  1.00 38.02     0.000 A 
HETATM   25  CAE   D T1356      -5.672   6.549   9.534  1.00 37.90     0.000 A 
HETATM   26  CAG   D T1356      -5.335   5.245   9.888  1.00 37.23     0.005 A 
ENDBRANCH  19  21
ENDBRANCH  15  18
ENDBRANCH  11  12
ENDBRANCH  10  11
BRANCH   3  27
HETATM   27  OAZ   D T1356      -1.856  -7.150  12.213  1.00 30.66    -0.326 OA
HETATM   28  CAA   D T1356      -1.782  -7.927  13.411  1.00 33.36     0.181 C 
ENDBRANCH   3  27
BRANCH   1  29
HETATM   29  OBB   D T1356      -3.746  -9.013  11.700  1.00 30.55    -0.329 OA
BRANCH  29  30
HETATM   30  CAP   D T1356      -4.775 -10.028  11.683  1.00 33.72     0.151 C 
BRANCH  30  31
HETATM   31  CAO   D T1356      -4.171 -11.367  12.147  1.00 37.07     0.068 C 
BRANCH  31  32
HETATM   32  CAS   D T1356      -3.784 -12.190  10.910  1.00 39.71     0.253 C 
BRANCH  32  33
HETATM   33  NBL   D T1356      -2.997 -13.430  11.120  1.00 41.70     0.142 N 
HETATM   34  CAT   D T1356      -3.573 -14.377  12.102  1.00 43.12     0.282 C 
HETATM   35  CAQ   D T1356      -2.742 -15.677  12.133  1.00 43.52     0.178 C 
HETATM   36  OBA   D T1356      -1.681 -15.626  11.115  1.00 44.22    -0.350 OA
HETATM   37  CAR   D T1356      -0.771 -14.484  11.276  1.00 43.52     0.178 C 
HETATM   38  CAU   D T1356      -1.573 -13.176  11.432  1.00 42.73     0.282 C 
ENDBRANCH  32  33
ENDBRANCH  31  32
ENDBRANCH  30  31
ENDBRANCH  29  30
ENDBRANCH   1  29
TORSDOF 10
