REMARK  10 active torsions:
REMARK  status: ('A' for Active; 'I' for Inactive)
REMARK    1  A    between atoms: NBL_6  and  CAS_7 
REMARK    2  A    between atoms: CAS_7  and  CAO_8 
REMARK    3  A    between atoms: CAO_8  and  CAP_9 
REMARK    4  A    between atoms: CAP_9  and  OBB_10 
REMARK    5  A    between atoms: OBB_10  and  CBH_11 
REMARK    6  A    between atoms: CBG_13  and  OAZ_14 
REMARK    7  A    between atoms: C6_22  and  NAY_23 
REMARK    8  A    between atoms: NAY_23  and  CBE_24 
REMARK    9  A    between atoms: CBD_29  and  NAX_30 
REMARK       I    between atoms: NAX_30  and  CBC_31 
REMARK   10  A    between atoms: CBC_31  and  CBF_33 
ROOT
HETATM    1  CBH   D T1356      -6.608  13.098 -14.378  1.00 30.53     0.118 A 
HETATM    2  CAM   D T1356      -6.325  11.937 -15.107  1.00 29.88     0.045 A 
HETATM    3  CBG   D T1356      -5.750  13.481 -13.327  1.00 30.48     0.117 A 
HETATM    4  CAN   D T1356      -4.635  12.707 -13.004  1.00 29.67     0.031 A 
HETATM    5  C5    D T1356      -4.347  11.548 -13.732  1.00 29.79     0.056 A 
HETATM    6  C4    D T1356      -5.198  11.170 -14.784  1.00 29.99     0.088 A 
HETATM    7  N3    D T1356      -4.939  10.059 -15.493  1.00 29.16    -0.224 NA
HETATM    8  C2    D T1356      -3.823   9.268 -15.195  1.00 30.02     0.200 A 
HETATM    9  N1    D T1356      -2.967   9.648 -14.148  1.00 29.74    -0.205 NA
HETATM   10  C6    D T1356      -3.224  10.758 -13.433  1.00 29.94     0.166 A 
ENDROOT
BRANCH  10  11
HETATM   11  NAY   D T1356      -2.434  11.159 -12.403  1.00 31.31    -0.227 NA
BRANCH  11  12
HETATM   12  CBE   D T1356      -1.406  10.379 -11.967  1.00 32.67     0.083 A 
HETATM   13  CAK   D T1356      -0.175  10.969 -11.677  1.00 33.73     0.021 A 
HETATM   14  CAI   D T1356       0.899  10.200 -11.219  1.00 34.14     0.021 A 
HETATM   15  CBD   D T1356       0.752   8.819 -11.021  1.00 33.99     0.085 A 
HETATM   16  CAH   D T1356      -0.476   8.228 -11.313  1.00 33.61     0.021 A 
HETATM   17  CAJ   D T1356      -1.544   9.001 -11.772  1.00 33.42     0.021 A 
BRANCH  15  18
HETATM   18  NAX   D T1356       1.767   8.023 -10.604  1.00 34.41    -0.208 NA
HETATM   19  CBC   D T1356       2.823   8.514  -9.910  1.00 37.04     0.279 C 
HETATM   20  OAB   D T1356       2.964   9.694  -9.577  1.00 38.15    -0.265 OA
BRANCH  19  21
HETATM   21  CBF   D T1356       3.792   7.563  -9.577  1.00 37.03     0.058 A 
HETATM   22  CAF   D T1356       4.850   7.911  -8.734  1.00 38.06     0.005 A 
HETATM   23  CAD   D T1356       5.822   6.969  -8.407  1.00 38.28     0.000 A 
HETATM   24  CAC   D T1356       5.744   5.676  -8.922  1.00 38.02     0.000 A 
HETATM   25  CAE   D T1356       4.688   5.324  -9.757  1.00 37.90     0.000 A 
HETATM   26  CAG   D T1356       3.720   6.269 -10.090  1.00 37.23     0.005 A 
ENDBRANCH  19  21
ENDBRANCH  15  18
ENDBRANCH  11  12
ENDBRANCH  10  11
BRANCH   3  27
HETATM   27  OAZ   D T1356      -6.041  14.610 -12.597  1.00 30.66    -0.326 OA
HETATM   28  CAA   D T1356      -6.100  15.844 -13.317  1.00 33.36     0.181 C 
ENDBRANCH   3  27
BRANCH   1  29
HETATM   29  OBB   D T1356      -7.688  13.910 -14.623  1.00 30.55    -0.329 OA
BRANCH  29  30
HETATM   30  CAP   D T1356      -8.452  13.727 -15.836  1.00 33.72     0.151 C 
BRANCH  30  31
HETATM   31  CAO   D T1356      -9.422  14.911 -16.007  1.00 37.07     0.068 C 
BRANCH  31  32
HETATM   32  CAS   D T1356     -10.798  14.507 -15.457  1.00 39.71     0.253 C 
BRANCH  32  33
HETATM   33  NBL   D T1356     -11.833  15.561 -15.332  1.00 41.70     0.142 N 
HETATM   34  CAT   D T1356     -12.077  16.346 -16.564  1.00 43.12     0.282 C 
HETATM   35  CAQ   D T1356     -13.260  17.314 -16.349  1.00 43.52     0.178 C 
HETATM   36  OBA   D T1356     -13.851  17.106 -15.018  1.00 44.22    -0.350 OA
HETATM   37  CAR   D T1356     -12.893  17.284 -13.919  1.00 43.52     0.178 C 
HETATM   38  CAU   D T1356     -11.610  16.469 -14.185  1.00 42.73     0.282 C 
ENDBRANCH  32  33
ENDBRANCH  31  32
ENDBRANCH  30  31
ENDBRANCH  29  30
ENDBRANCH   1  29
TORSDOF 10
