REMARK  10 active torsions:
REMARK  status: ('A' for Active; 'I' for Inactive)
REMARK    1  A    between atoms: NBL_6  and  CAS_7 
REMARK    2  A    between atoms: CAS_7  and  CAO_8 
REMARK    3  A    between atoms: CAO_8  and  CAP_9 
REMARK    4  A    between atoms: CAP_9  and  OBB_10 
REMARK    5  A    between atoms: OBB_10  and  CBH_11 
REMARK    6  A    between atoms: CBG_13  and  OAZ_14 
REMARK    7  A    between atoms: C6_22  and  NAY_23 
REMARK    8  A    between atoms: NAY_23  and  CBE_24 
REMARK    9  A    between atoms: CBD_29  and  NAX_30 
REMARK       I    between atoms: NAX_30  and  CBC_31 
REMARK   10  A    between atoms: CBC_31  and  CBF_33 
ROOT
HETATM    1  CBH   D T1356     -15.364  -9.304   8.139  1.00 30.53     0.118 A 
HETATM    2  CAM   D T1356     -16.409  -8.380   8.029  1.00 29.88     0.045 A 
HETATM    3  CBG   D T1356     -14.143  -8.901   8.717  1.00 30.48     0.117 A 
HETATM    4  CAN   D T1356     -13.969  -7.592   9.167  1.00 29.67     0.031 A 
HETATM    5  C5    D T1356     -15.012  -6.667   9.063  1.00 29.79     0.056 A 
HETATM    6  C4    D T1356     -16.232  -7.070   8.492  1.00 29.99     0.088 A 
HETATM    7  N3    D T1356     -17.245  -6.195   8.382  1.00 29.16    -0.224 NA
HETATM    8  C2    D T1356     -17.100  -4.877   8.831  1.00 30.02     0.200 A 
HETATM    9  N1    D T1356     -15.885  -4.473   9.408  1.00 29.74    -0.205 NA
HETATM   10  C6    D T1356     -14.866  -5.345   9.518  1.00 29.94     0.166 A 
ENDROOT
BRANCH  10  11
HETATM   11  NAY   D T1356     -13.667  -4.999  10.056  1.00 31.31    -0.227 NA
BRANCH  11  12
HETATM   12  CBE   D T1356     -13.403  -3.708  10.397  1.00 32.67     0.083 A 
HETATM   13  CAK   D T1356     -12.766  -3.437  11.610  1.00 33.73     0.021 A 
HETATM   14  CAI   D T1356     -12.471  -2.124  11.987  1.00 34.14     0.021 A 
HETATM   15  CBD   D T1356     -12.790  -1.051  11.142  1.00 33.99     0.085 A 
HETATM   16  CAH   D T1356     -13.428  -1.320   9.932  1.00 33.61     0.021 A 
HETATM   17  CAJ   D T1356     -13.722  -2.633   9.561  1.00 33.42     0.021 A 
BRANCH  15  18
HETATM   18  NAX   D T1356     -12.550   0.242  11.471  1.00 34.41    -0.208 NA
HETATM   19  CBC   D T1356     -11.597   0.587  12.370  1.00 37.04     0.279 C 
HETATM   20  OAB   D T1356     -10.856  -0.208  12.956  1.00 38.15    -0.265 OA
BRANCH  19  21
HETATM   21  CBF   D T1356     -11.495   1.960  12.612  1.00 37.03     0.058 A 
HETATM   22  CAF   D T1356     -10.454   2.454  13.400  1.00 38.06     0.005 A 
HETATM   23  CAD   D T1356     -10.354   3.820  13.650  1.00 38.28     0.000 A 
HETATM   24  CAC   D T1356     -11.294   4.700  13.116  1.00 38.02     0.000 A 
HETATM   25  CAE   D T1356     -12.329   4.211  12.324  1.00 37.90     0.000 A 
HETATM   26  CAG   D T1356     -12.434   2.844  12.081  1.00 37.23     0.005 A 
ENDBRANCH  19  21
ENDBRANCH  15  18
ENDBRANCH  11  12
ENDBRANCH  10  11
BRANCH   3  27
HETATM   27  OAZ   D T1356     -13.108  -9.803   8.804  1.00 30.66    -0.326 OA
HETATM   28  CAA   D T1356     -13.351 -10.989   9.565  1.00 33.36     0.181 C 
ENDBRANCH   3  27
BRANCH   1  29
HETATM   29  OBB   D T1356     -15.446 -10.607   7.713  1.00 30.55    -0.329 OA
BRANCH  29  30
HETATM   30  CAP   D T1356     -16.736 -11.156   7.356  1.00 33.72     0.151 C 
BRANCH  30  31
HETATM   31  CAO   D T1356     -16.606 -12.680   7.178  1.00 37.07     0.068 C 
BRANCH  31  32
HETATM   32  CAS   D T1356     -16.416 -12.989   5.686  1.00 39.71     0.253 C 
BRANCH  32  33
HETATM   33  NBL   D T1356     -16.066 -14.378   5.304  1.00 41.70     0.142 N 
HETATM   34  CAT   D T1356     -16.966 -15.422   5.848  1.00 43.12     0.282 C 
HETATM   35  CAQ   D T1356     -16.581 -16.802   5.276  1.00 43.52     0.178 C 
HETATM   36  OBA   D T1356     -15.496 -16.661   4.292  1.00 44.22    -0.350 OA
HETATM   37  CAR   D T1356     -14.289 -16.027   4.840  1.00 43.52     0.178 C 
HETATM   38  CAU   D T1356     -14.655 -14.726   5.584  1.00 42.73     0.282 C 
ENDBRANCH  32  33
ENDBRANCH  31  32
ENDBRANCH  30  31
ENDBRANCH  29  30
ENDBRANCH   1  29
TORSDOF 10
