REMARK  10 active torsions:
REMARK  status: ('A' for Active; 'I' for Inactive)
REMARK    1  A    between atoms: NBL_6  and  CAS_7 
REMARK    2  A    between atoms: CAS_7  and  CAO_8 
REMARK    3  A    between atoms: CAO_8  and  CAP_9 
REMARK    4  A    between atoms: CAP_9  and  OBB_10 
REMARK    5  A    between atoms: OBB_10  and  CBH_11 
REMARK    6  A    between atoms: CBG_13  and  OAZ_14 
REMARK    7  A    between atoms: C6_22  and  NAY_23 
REMARK    8  A    between atoms: NAY_23  and  CBE_24 
REMARK    9  A    between atoms: CBD_29  and  NAX_30 
REMARK       I    between atoms: NAX_30  and  CBC_31 
REMARK   10  A    between atoms: CBC_31  and  CBF_33 
ROOT
HETATM    1  CBH   D T1356      12.238  -0.283   3.994  1.00 30.53     0.118 A 
HETATM    2  CAM   D T1356      12.731   0.792   4.743  1.00 29.88     0.045 A 
HETATM    3  CBG   D T1356      10.878  -0.302   3.626  1.00 30.48     0.117 A 
HETATM    4  CAN   D T1356      10.024   0.731   4.011  1.00 29.67     0.031 A 
HETATM    5  C5    D T1356      10.513   1.809   4.756  1.00 29.79     0.056 A 
HETATM    6  C4    D T1356      11.871   1.832   5.118  1.00 29.99     0.088 A 
HETATM    7  N3    D T1356      12.359   2.857   5.835  1.00 29.16    -0.224 NA
HETATM    8  C2    D T1356      11.526   3.911   6.229  1.00 30.02     0.200 A 
HETATM    9  N1    D T1356      10.170   3.894   5.863  1.00 29.74    -0.205 NA
HETATM   10  C6    D T1356       9.676   2.868   5.147  1.00 29.94     0.166 A 
ENDROOT
BRANCH  10  11
HETATM   11  NAY   D T1356       8.369   2.799   4.781  1.00 31.31    -0.227 NA
BRANCH  11  12
HETATM   12  CBE   D T1356       7.469   3.715   5.232  1.00 32.67     0.083 A 
HETATM   13  CAK   D T1356       6.535   4.252   4.344  1.00 33.73     0.021 A 
HETATM   14  CAI   D T1356       5.591   5.188   4.776  1.00 34.14     0.021 A 
HETATM   15  CBD   D T1356       5.549   5.590   6.119  1.00 33.99     0.085 A 
HETATM   16  CAH   D T1356       6.483   5.057   7.006  1.00 33.61     0.021 A 
HETATM   17  CAJ   D T1356       7.425   4.124   6.569  1.00 33.42     0.021 A 
BRANCH  15  18
HETATM   18  NAX   D T1356       4.672   6.513   6.584  1.00 34.41    -0.208 NA
HETATM   19  CBC   D T1356       3.499   6.767   5.955  1.00 37.04     0.279 C 
HETATM   20  OAB   D T1356       3.105   6.195   4.934  1.00 38.15    -0.265 OA
BRANCH  19  21
HETATM   21  CBF   D T1356       2.722   7.763   6.553  1.00 37.03     0.058 A 
HETATM   22  CAF   D T1356       1.428   8.011   6.090  1.00 38.06     0.005 A 
HETATM   23  CAD   D T1356       0.654   9.008   6.678  1.00 38.28     0.000 A 
HETATM   24  CAC   D T1356       1.169   9.765   7.729  1.00 38.02     0.000 A 
HETATM   25  CAE   D T1356       2.456   9.516   8.197  1.00 37.90     0.000 A 
HETATM   26  CAG   D T1356       3.233   8.524   7.604  1.00 37.23     0.005 A 
ENDBRANCH  19  21
ENDBRANCH  15  18
ENDBRANCH  11  12
ENDBRANCH  10  11
BRANCH   3  27
HETATM   27  OAZ   D T1356      10.389  -1.370   2.909  1.00 30.66    -0.326 OA
HETATM   28  CAA   D T1356      10.984  -1.614   1.632  1.00 33.36     0.181 C 
ENDBRANCH   3  27
BRANCH   1  29
HETATM   29  OBB   D T1356      13.006  -1.345   3.583  1.00 30.55    -0.329 OA
BRANCH  29  30
HETATM   30  CAP   D T1356      14.445  -1.265   3.696  1.00 33.72     0.151 C 
BRANCH  30  31
HETATM   31  CAO   D T1356      15.079  -2.442   2.932  1.00 37.07     0.068 C 
BRANCH  31  32
HETATM   32  CAS   D T1356      15.382  -3.572   3.927  1.00 39.71     0.253 C 
BRANCH  32  33
HETATM   33  NBL   D T1356      15.808  -4.883   3.380  1.00 41.70     0.142 N 
HETATM   34  CAT   D T1356      16.948  -4.825   2.436  1.00 43.12     0.282 C 
HETATM   35  CAQ   D T1356      17.382  -6.253   2.043  1.00 43.52     0.178 C 
HETATM   36  OBA   D T1356      16.596  -7.247   2.791  1.00 44.22    -0.350 OA
HETATM   37  CAR   D T1356      15.147  -7.123   2.583  1.00 43.52     0.178 C 
HETATM   38  CAU   D T1356      14.697  -5.662   2.790  1.00 42.73     0.282 C 
ENDBRANCH  32  33
ENDBRANCH  31  32
ENDBRANCH  30  31
ENDBRANCH  29  30
ENDBRANCH   1  29
TORSDOF 10
