REMARK  10 active torsions:
REMARK  status: ('A' for Active; 'I' for Inactive)
REMARK    1  A    between atoms: NBL_6  and  CAS_7 
REMARK    2  A    between atoms: CAS_7  and  CAO_8 
REMARK    3  A    between atoms: CAO_8  and  CAP_9 
REMARK    4  A    between atoms: CAP_9  and  OBB_10 
REMARK    5  A    between atoms: OBB_10  and  CBH_11 
REMARK    6  A    between atoms: CBG_13  and  OAZ_14 
REMARK    7  A    between atoms: C6_22  and  NAY_23 
REMARK    8  A    between atoms: NAY_23  and  CBE_24 
REMARK    9  A    between atoms: CBD_29  and  NAX_30 
REMARK       I    between atoms: NAX_30  and  CBC_31 
REMARK   10  A    between atoms: CBC_31  and  CBF_33 
ROOT
HETATM    1  CBH   D T1356      -3.139  -3.628  15.752  1.00 30.53     0.118 A 
HETATM    2  CAM   D T1356      -4.454  -3.247  15.458  1.00 29.88     0.045 A 
HETATM    3  CBG   D T1356      -2.104  -2.679  15.640  1.00 30.48     0.117 A 
HETATM    4  CAN   D T1356      -2.378  -1.375  15.231  1.00 29.67     0.031 A 
HETATM    5  C5    D T1356      -3.690  -0.988  14.940  1.00 29.79     0.056 A 
HETATM    6  C4    D T1356      -4.725  -1.932  15.058  1.00 29.99     0.088 A 
HETATM    7  N3    D T1356      -5.991  -1.581  14.781  1.00 29.16    -0.224 NA
HETATM    8  C2    D T1356      -6.296  -0.277  14.375  1.00 30.02     0.200 A 
HETATM    9  N1    D T1356      -5.265   0.671  14.263  1.00 29.74    -0.205 NA
HETATM   10  C6    D T1356      -3.995   0.323  14.537  1.00 29.94     0.166 A 
ENDROOT
BRANCH  10  11
HETATM   11  NAY   D T1356      -2.962   1.200  14.430  1.00 31.31    -0.227 NA
BRANCH  11  12
HETATM   12  CBE   D T1356      -3.154   2.446  13.919  1.00 32.67     0.083 A 
HETATM   13  CAK   D T1356      -2.559   3.543  14.546  1.00 33.73     0.021 A 
HETATM   14  CAI   D T1356      -2.729   4.836  14.043  1.00 34.14     0.021 A 
HETATM   15  CBD   D T1356      -3.485   5.055  12.881  1.00 33.99     0.085 A 
HETATM   16  CAH   D T1356      -4.082   3.961  12.256  1.00 33.61     0.021 A 
HETATM   17  CAJ   D T1356      -3.911   2.672  12.764  1.00 33.42     0.021 A 
BRANCH  15  18
HETATM   18  NAX   D T1356      -3.702   6.290  12.367  1.00 34.41    -0.208 NA
HETATM   19  CBC   D T1356      -2.867   7.327  12.616  1.00 37.04     0.279 C 
HETATM   20  OAB   D T1356      -1.842   7.261  13.301  1.00 38.15    -0.265 OA
BRANCH  19  21
HETATM   21  CBF   D T1356      -3.248   8.536  12.028  1.00 37.03     0.058 A 
HETATM   22  CAF   D T1356      -2.394   9.639  12.083  1.00 38.06     0.005 A 
HETATM   23  CAD   D T1356      -2.775  10.848  11.505  1.00 38.28     0.000 A 
HETATM   24  CAC   D T1356      -4.011  10.962  10.872  1.00 38.02     0.000 A 
HETATM   25  CAE   D T1356      -4.862   9.862  10.810  1.00 37.90     0.000 A 
HETATM   26  CAG   D T1356      -4.485   8.655  11.394  1.00 37.23     0.005 A 
ENDBRANCH  19  21
ENDBRANCH  15  18
ENDBRANCH  11  12
ENDBRANCH  10  11
BRANCH   3  27
HETATM   27  OAZ   D T1356      -0.809  -3.060  15.907  1.00 30.66    -0.326 OA
HETATM   28  CAA   D T1356      -0.541  -3.551  17.224  1.00 33.36     0.181 C 
ENDBRANCH   3  27
BRANCH   1  29
HETATM   29  OBB   D T1356      -2.781  -4.893  16.151  1.00 30.55    -0.329 OA
BRANCH  29  30
HETATM   30  CAP   D T1356      -3.809  -5.833  16.536  1.00 33.72     0.151 C 
BRANCH  30  31
HETATM   31  CAO   D T1356      -3.152  -7.062  17.191  1.00 37.07     0.068 C 
BRANCH  31  32
HETATM   32  CAS   D T1356      -2.990  -8.160  16.130  1.00 39.71     0.253 C 
BRANCH  32  33
HETATM   33  NBL   D T1356      -2.193  -9.359  16.487  1.00 41.70     0.142 N 
HETATM   34  CAT   D T1356      -2.606 -10.031  17.742  1.00 43.12     0.282 C 
HETATM   35  CAQ   D T1356      -1.797 -11.331  17.935  1.00 43.52     0.178 C 
HETATM   36  OBA   D T1356      -0.924 -11.564  16.774  1.00 44.22    -0.350 OA
HETATM   37  CAR   D T1356       0.014 -10.463  16.517  1.00 43.52     0.178 C 
HETATM   38  CAU   D T1356      -0.734  -9.114  16.497  1.00 42.73     0.282 C 
ENDBRANCH  32  33
ENDBRANCH  31  32
ENDBRANCH  30  31
ENDBRANCH  29  30
ENDBRANCH   1  29
TORSDOF 10
