REMARK  10 active torsions:
REMARK  status: ('A' for Active; 'I' for Inactive)
REMARK    1  A    between atoms: NBL_6  and  CAS_7 
REMARK    2  A    between atoms: CAS_7  and  CAO_8 
REMARK    3  A    between atoms: CAO_8  and  CAP_9 
REMARK    4  A    between atoms: CAP_9  and  OBB_10 
REMARK    5  A    between atoms: OBB_10  and  CBH_11 
REMARK    6  A    between atoms: CBG_13  and  OAZ_14 
REMARK    7  A    between atoms: C6_22  and  NAY_23 
REMARK    8  A    between atoms: NAY_23  and  CBE_24 
REMARK    9  A    between atoms: CBD_29  and  NAX_30 
REMARK       I    between atoms: NAX_30  and  CBC_31 
REMARK   10  A    between atoms: CBC_31  and  CBF_33 
ROOT
HETATM    1  CBH   D T1356      -7.077  -5.089 -14.114  1.00 30.53     0.118 A 
HETATM    2  CAM   D T1356      -6.133  -6.114 -13.982  1.00 29.88     0.045 A 
HETATM    3  CBG   D T1356      -6.668  -3.750 -13.959  1.00 30.48     0.117 A 
HETATM    4  CAN   D T1356      -5.340  -3.443 -13.664  1.00 29.67     0.031 A 
HETATM    5  C5    D T1356      -4.392  -4.463 -13.535  1.00 29.79     0.056 A 
HETATM    6  C4    D T1356      -4.798  -5.800 -13.697  1.00 29.99     0.088 A 
HETATM    7  N3    D T1356      -3.904  -6.794 -13.574  1.00 29.16    -0.224 NA
HETATM    8  C2    D T1356      -2.563  -6.514 -13.287  1.00 30.02     0.200 A 
HETATM    9  N1    D T1356      -2.153  -5.180 -13.131  1.00 29.74    -0.205 NA
HETATM   10  C6    D T1356      -3.045  -4.180 -13.250  1.00 29.94     0.166 A 
ENDROOT
BRANCH  10  11
HETATM   11  NAY   D T1356      -2.701  -2.875 -13.095  1.00 31.31    -0.227 NA
BRANCH  11  12
HETATM   12  CBE   D T1356      -1.449  -2.527 -12.688  1.00 32.67     0.083 A 
HETATM   13  CAK   D T1356      -0.793  -1.470 -13.321  1.00 33.73     0.021 A 
HETATM   14  CAI   D T1356       0.489  -1.081 -12.922  1.00 34.14     0.021 A 
HETATM   15  CBD   D T1356       1.134  -1.733 -11.861  1.00 33.99     0.085 A 
HETATM   16  CAH   D T1356       0.481  -2.791 -11.231  1.00 33.61     0.021 A 
HETATM   17  CAJ   D T1356      -0.799  -3.177 -11.634  1.00 33.42     0.021 A 
BRANCH  15  18
HETATM   18  NAX   D T1356       2.386  -1.413 -11.452  1.00 34.41    -0.208 NA
HETATM   19  CBC   D T1356       2.924  -0.191 -11.681  1.00 37.04     0.279 C 
HETATM   20  OAB   D T1356       2.347   0.740 -12.252  1.00 38.15    -0.265 OA
BRANCH  19  21
HETATM   21  CBF   D T1356       4.232  -0.034 -11.214  1.00 37.03     0.058 A 
HETATM   22  CAF   D T1356       4.841   1.222 -11.253  1.00 38.06     0.005 A 
HETATM   23  CAD   D T1356       6.146   1.381 -10.796  1.00 38.28     0.000 A 
HETATM   24  CAC   D T1356       6.852   0.285 -10.302  1.00 38.02     0.000 A 
HETATM   25  CAE   D T1356       6.246  -0.967 -10.256  1.00 37.90     0.000 A 
HETATM   26  CAG   D T1356       4.943  -1.127 -10.720  1.00 37.23     0.005 A 
ENDBRANCH  19  21
ENDBRANCH  15  18
ENDBRANCH  11  12
ENDBRANCH  10  11
BRANCH   3  27
HETATM   27  OAZ   D T1356      -7.600  -2.744 -14.066  1.00 30.66    -0.326 OA
HETATM   28  CAA   D T1356      -8.291  -2.638 -15.314  1.00 33.36     0.181 C 
ENDBRANCH   3  27
BRANCH   1  29
HETATM   29  OBB   D T1356      -8.405  -5.303 -14.392  1.00 30.55    -0.329 OA
BRANCH  29  30
HETATM   30  CAP   D T1356      -8.837  -6.615 -14.818  1.00 33.72     0.151 C 
BRANCH  30  31
HETATM   31  CAO   D T1356     -10.290  -6.530 -15.322  1.00 37.07     0.068 C 
BRANCH  31  32
HETATM   32  CAS   D T1356     -11.234  -6.939 -14.181  1.00 39.71     0.253 C 
BRANCH  32  33
HETATM   33  NBL   D T1356     -12.689  -6.735 -14.377  1.00 41.70     0.142 N 
HETATM   34  CAT   D T1356     -13.240  -7.322 -15.621  1.00 43.12     0.282 C 
HETATM   35  CAQ   D T1356     -14.775  -7.163 -15.646  1.00 43.52     0.178 C 
HETATM   36  OBA   D T1356     -15.244  -6.559 -14.389  1.00 44.22    -0.350 OA
HETATM   37  CAR   D T1356     -14.641  -5.249 -14.109  1.00 43.52     0.178 C 
HETATM   38  CAU   D T1356     -13.106  -5.321 -14.252  1.00 42.73     0.282 C 
ENDBRANCH  32  33
ENDBRANCH  31  32
ENDBRANCH  30  31
ENDBRANCH  29  30
ENDBRANCH   1  29
TORSDOF 10
