REMARK  5 active torsions:
REMARK  status: ('A' for Active; 'I' for Inactive)
REMARK    1  A    between atoms: C17_7  and  C21_10 
REMARK    2  A    between atoms: C21_10  and  O27_12 
REMARK    3  A    between atoms: O27_12  and  C15_13 
REMARK    4  A    between atoms: C14_19  and  C16_20 
REMARK    5  A    between atoms: N26_23  and  C20_25 
ROOT
HETATM    1  C15   D T2346       4.106  11.428   2.542  1.00 39.29     0.125 A 
HETATM    2  C4    D T2346       5.510  11.549   2.633  1.00 40.72     0.029 A 
HETATM    3  C19   D T2346       3.524  10.370   3.258  1.00 38.96     0.173 A 
HETATM    4  N22   D T2346       2.139  10.170   3.215  1.00 36.18    -0.078 NA
HETATM    5  N23   D T2346       4.236   9.502   4.018  1.00 39.65    -0.228 NA
HETATM    6  C5    D T2346       5.576   9.659   4.081  1.00 40.33     0.100 A 
HETATM    7  C14   D T2346       6.279  10.658   3.419  1.00 42.26     0.024 A 
ENDROOT
BRANCH   1   8
HETATM    8  O27   D T2346       3.204  12.207   1.843  1.00 39.48    -0.326 OA
BRANCH   8   9
HETATM    9  C21   D T2346       3.538  13.363   1.042  1.00 39.13     0.145 C 
HETATM   10  C1    D T2346       2.246  14.148   0.836  1.00 39.28     0.038 C 
BRANCH   9  11
HETATM   11  C17   D T2346       4.204  12.977  -0.285  1.00 39.21     0.029 A 
HETATM   12  C13   D T2346       5.513  13.421  -0.616  1.00 38.58     0.057 A 
HETATM   13 CL     D T2346       6.476  14.451   0.391  1.00 39.67    -0.083 Cl
HETATM   14  C3    D T2346       6.140  13.064  -1.820  1.00 38.18     0.013 A 
HETATM   15  C2    D T2346       5.500  12.264  -2.749  1.00 37.72     0.031 A 
HETATM   16  C12   D T2346       4.229  11.824  -2.448  1.00 38.63     0.150 A 
HETATM   17  F     D T2346       3.622  11.054  -3.340  1.00 38.40    -0.203 F 
HETATM   18  C18   D T2346       3.579  12.153  -1.251  1.00 40.35     0.084 A 
HETATM   19 CL2    D T2346       1.979  11.506  -1.077  1.00 48.02    -0.080 Cl
ENDBRANCH   9  11
ENDBRANCH   8   9
ENDBRANCH   1   8
BRANCH   7  20
HETATM   20  C16   D T2346       7.732  10.714   3.538  1.00 45.17     0.042 A 
HETATM   21  C6    D T2346       8.736  11.409   2.817  1.00 46.03     0.122 A 
HETATM   22  N24   D T2346       9.973  11.144   3.245  1.00 47.73    -0.164 NA
HETATM   23  N26   D T2346       9.787  10.254   4.246  1.00 49.42    -0.236 N 
HETATM   24  C7    D T2346       8.470   9.969   4.439  1.00 47.26     0.101 A 
BRANCH  23  25
HETATM   25  C20   D T2346      10.918   9.707   5.000  1.00 52.42     0.042 C 
HETATM   26  C8    D T2346      11.749   8.612   4.303  1.00 53.67     0.067 C 
HETATM   27  C10   D T2346      13.079   9.032   3.675  1.00 56.13     0.126 C 
HETATM   28  N25   D T2346      13.807  10.053   4.503  1.00 56.98    -0.295 NA
HETATM   29  C11   D T2346      12.998  11.232   4.950  1.00 56.01     0.126 C 
HETATM   30  C9    D T2346      11.772  10.760   5.730  1.00 54.43     0.067 C 
ENDBRANCH  23  25
ENDBRANCH   7  20
TORSDOF 5
