REMARK  5 active torsions:
REMARK  status: ('A' for Active; 'I' for Inactive)
REMARK    1  A    between atoms: C17_7  and  C21_10 
REMARK    2  A    between atoms: C21_10  and  O27_12 
REMARK    3  A    between atoms: O27_12  and  C15_13 
REMARK    4  A    between atoms: C14_19  and  C16_20 
REMARK    5  A    between atoms: N26_23  and  C20_25 
ROOT
HETATM    1  C15   D T2346      -4.103   0.239  13.774  1.00 39.29     0.125 A 
HETATM    2  C4    D T2346      -3.185  -0.730  14.235  1.00 40.72     0.029 A 
HETATM    3  C19   D T2346      -5.447  -0.161  13.701  1.00 38.96     0.173 A 
HETATM    4  N22   D T2346      -6.422   0.734  13.246  1.00 36.18    -0.078 NA
HETATM    5  N23   D T2346      -5.879  -1.396  14.059  1.00 39.65    -0.228 NA
HETATM    6  C5    D T2346      -4.966  -2.288  14.500  1.00 40.33     0.100 A 
HETATM    7  C14   D T2346      -3.607  -2.026  14.615  1.00 42.26     0.024 A 
ENDROOT
BRANCH   1   8
HETATM    8  O27   D T2346      -3.874   1.543  13.379  1.00 39.48    -0.326 OA
BRANCH   8   9
HETATM    9  C21   D T2346      -2.590   2.205  13.373  1.00 39.13     0.145 C 
HETATM   10  C1    D T2346      -2.864   3.704  13.301  1.00 39.28     0.038 C 
BRANCH   9  11
HETATM   11  C17   D T2346      -1.692   1.720  12.228  1.00 39.21     0.029 A 
HETATM   12  C13   D T2346      -0.431   1.113  12.477  1.00 38.58     0.057 A 
HETATM   13 CL     D T2346       0.244   0.883  14.057  1.00 39.67    -0.083 Cl
HETATM   14  C3    D T2346       0.394   0.652  11.440  1.00 38.18     0.013 A 
HETATM   15  C2    D T2346       0.016   0.779  10.116  1.00 37.72     0.031 A 
HETATM   16  C12   D T2346      -1.202   1.367   9.852  1.00 38.63     0.150 A 
HETATM   17  F     D T2346      -1.562   1.482   8.581  1.00 38.40    -0.203 F 
HETATM   18  C18   D T2346      -2.055   1.828  10.864  1.00 40.35     0.084 A 
HETATM   19 CL2    D T2346      -3.534   2.548  10.313  1.00 48.02    -0.080 Cl
ENDBRANCH   9  11
ENDBRANCH   8   9
ENDBRANCH   1   8
BRANCH   7  20
HETATM   20  C16   D T2346      -2.708  -3.079  15.077  1.00 45.17     0.042 A 
HETATM   21  C6    D T2346      -1.298  -3.224  15.059  1.00 46.03     0.122 A 
HETATM   22  N24   D T2346      -0.880  -4.388  15.566  1.00 47.73    -0.164 NA
HETATM   23  N26   D T2346      -2.024  -5.022  15.907  1.00 49.42    -0.236 N 
HETATM   24  C7    D T2346      -3.127  -4.279  15.620  1.00 47.26     0.101 A 
BRANCH  23  25
HETATM   25  C20   D T2346      -2.003  -6.355  16.517  1.00 52.42     0.042 C 
HETATM   26  C8    D T2346      -1.730  -7.544  15.576  1.00 53.67     0.067 C 
HETATM   27  C10   D T2346      -0.315  -8.124  15.572  1.00 56.13     0.126 C 
HETATM   28  N25   D T2346       0.298  -8.153  16.944  1.00 56.98    -0.295 NA
HETATM   29  C11   D T2346       0.216  -6.878  17.725  1.00 56.01     0.126 C 
HETATM   30  C9    D T2346      -1.241  -6.436  17.853  1.00 54.43     0.067 C 
ENDBRANCH  23  25
ENDBRANCH   7  20
TORSDOF 5
