REMARK  5 active torsions:
REMARK  status: ('A' for Active; 'I' for Inactive)
REMARK    1  A    between atoms: C17_7  and  C21_10 
REMARK    2  A    between atoms: C21_10  and  O27_12 
REMARK    3  A    between atoms: O27_12  and  C15_13 
REMARK    4  A    between atoms: C14_19  and  C16_20 
REMARK    5  A    between atoms: N26_23  and  C20_25 
ROOT
HETATM    1  C15   D T2346      -4.275   1.143  13.645  1.00 39.29     0.125 A 
HETATM    2  C4    D T2346      -3.308   0.249  14.155  1.00 40.72     0.029 A 
HETATM    3  C19   D T2346      -5.599   0.678  13.613  1.00 38.96     0.173 A 
HETATM    4  N22   D T2346      -6.619   1.496  13.115  1.00 36.18    -0.078 NA
HETATM    5  N23   D T2346      -5.969  -0.550  14.053  1.00 39.65    -0.228 NA
HETATM    6  C5    D T2346      -5.012  -1.370  14.538  1.00 40.33     0.100 A 
HETATM    7  C14   D T2346      -3.665  -1.038  14.621  1.00 42.26     0.024 A 
ENDROOT
BRANCH   1   8
HETATM    8  O27   D T2346      -4.111   2.429  13.166  1.00 39.48    -0.326 OA
BRANCH   8   9
HETATM    9  C21   D T2346      -2.859   3.148  13.103  1.00 39.13     0.145 C 
HETATM   10  C1    D T2346      -3.204   4.625  12.940  1.00 39.28     0.038 C 
BRANCH   9  11
HETATM   11  C17   D T2346      -1.949   2.633  11.980  1.00 39.21     0.029 A 
HETATM   12  C13   D T2346      -0.660   2.102  12.252  1.00 38.58     0.057 A 
HETATM   13 CL     D T2346       0.039   2.004  13.835  1.00 39.67    -0.083 Cl
HETATM   14  C3    D T2346       0.176   1.615  11.236  1.00 38.18     0.013 A 
HETATM   15  C2    D T2346      -0.219   1.640   9.911  1.00 37.72     0.031 A 
HETATM   16  C12   D T2346      -1.465   2.153   9.625  1.00 38.63     0.150 A 
HETATM   17  F     D T2346      -1.842   2.171   8.354  1.00 38.40    -0.203 F 
HETATM   18  C18   D T2346      -2.330   2.638  10.617  1.00 40.35     0.084 A 
HETATM   19 CL2    D T2346      -3.845   3.252  10.039  1.00 48.02    -0.080 Cl
ENDBRANCH   9  11
ENDBRANCH   8   9
ENDBRANCH   1   8
BRANCH   7  20
HETATM   20  C16   D T2346      -2.715  -2.018  15.137  1.00 45.17     0.042 A 
HETATM   21  C6    D T2346      -1.300  -2.098  15.111  1.00 46.03     0.122 A 
HETATM   22  N24   D T2346      -0.823  -3.207  15.686  1.00 47.73    -0.164 NA
HETATM   23  N26   D T2346      -1.933  -3.871  16.079  1.00 49.42    -0.236 N 
HETATM   24  C7    D T2346      -3.072  -3.199  15.759  1.00 47.26     0.101 A 
BRANCH  23  25
HETATM   25  C20   D T2346      -1.844  -5.159  16.772  1.00 52.42     0.042 C 
HETATM   26  C8    D T2346      -1.524  -6.392  15.904  1.00 53.67     0.067 C 
HETATM   27  C10   D T2346      -0.083  -6.906  15.920  1.00 56.13     0.126 C 
HETATM   28  N25   D T2346       0.542  -6.819  17.283  1.00 56.98    -0.295 NA
HETATM   29  C11   D T2346       0.408  -5.502  17.984  1.00 56.01     0.126 C 
HETATM   30  C9    D T2346      -1.067  -5.120  18.101  1.00 54.43     0.067 C 
ENDBRANCH  23  25
ENDBRANCH   7  20
TORSDOF 5
