REMARK  5 active torsions:
REMARK  status: ('A' for Active; 'I' for Inactive)
REMARK    1  A    between atoms: C17_7  and  C21_10 
REMARK    2  A    between atoms: C21_10  and  O27_12 
REMARK    3  A    between atoms: O27_12  and  C15_13 
REMARK    4  A    between atoms: C14_19  and  C16_20 
REMARK    5  A    between atoms: N26_23  and  C20_25 
ROOT
HETATM    1  C15   D T2346       8.049   2.099  -7.114  1.00 39.29     0.125 A 
HETATM    2  C4    D T2346       9.061   2.617  -6.275  1.00 40.72     0.029 A 
HETATM    3  C19   D T2346       7.290   3.039  -7.828  1.00 38.96     0.173 A 
HETATM    4  N22   D T2346       6.259   2.613  -8.675  1.00 36.18    -0.078 NA
HETATM    5  N23   D T2346       7.498   4.377  -7.756  1.00 39.65    -0.228 NA
HETATM    6  C5    D T2346       8.480   4.826  -6.946  1.00 40.33     0.100 A 
HETATM    7  C14   D T2346       9.301   4.007  -6.180  1.00 42.26     0.024 A 
ENDROOT
BRANCH   1   8
HETATM    8  O27   D T2346       7.688   0.784  -7.340  1.00 39.48    -0.326 OA
BRANCH   8   9
HETATM    9  C21   D T2346       8.316  -0.373  -6.744  1.00 39.13     0.145 C 
HETATM   10  C1    D T2346       7.915  -1.579  -7.589  1.00 39.28     0.038 C 
BRANCH   9  11
HETATM   11  C17   D T2346       7.938  -0.543  -5.267  1.00 39.21     0.029 A 
HETATM   12  C13   D T2346       8.922  -0.532  -4.242  1.00 38.58     0.057 A 
HETATM   13 CL     D T2346      10.624  -0.364  -4.527  1.00 39.67    -0.083 Cl
HETATM   14  C3    D T2346       8.589  -0.672  -2.886  1.00 38.18     0.013 A 
HETATM   15  C2    D T2346       7.276  -0.839  -2.486  1.00 37.72     0.031 A 
HETATM   16  C12   D T2346       6.306  -0.855  -3.465  1.00 38.63     0.150 A 
HETATM   17  F     D T2346       5.048  -1.011  -3.076  1.00 38.40    -0.203 F 
HETATM   18  C18   D T2346       6.603  -0.707  -4.827  1.00 40.35     0.084 A 
HETATM   19 CL2    D T2346       5.236  -0.770  -5.892  1.00 48.02    -0.080 Cl
ENDBRANCH   9  11
ENDBRANCH   8   9
ENDBRANCH   1   8
BRANCH   7  20
HETATM   20  C16   D T2346      10.313   4.609  -5.318  1.00 45.17     0.042 A 
HETATM   21  C6    D T2346      11.103   4.102  -4.256  1.00 46.03     0.122 A 
HETATM   22  N24   D T2346      11.899   5.022  -3.703  1.00 47.73    -0.164 NA
HETATM   23  N26   D T2346      11.620   6.149  -4.396  1.00 49.42    -0.236 N 
HETATM   24  C7    D T2346      10.676   5.942  -5.354  1.00 47.26     0.101 A 
BRANCH  23  25
HETATM   25  C20   D T2346      12.301   7.413  -4.100  1.00 52.42     0.042 C 
HETATM   26  C8    D T2346      11.831   8.175  -2.845  1.00 53.67     0.067 C 
HETATM   27  C10   D T2346      12.690   8.051  -1.586  1.00 56.13     0.126 C 
HETATM   28  N25   D T2346      14.160   8.035  -1.894  1.00 56.98    -0.295 NA
HETATM   29  C11   D T2346      14.595   7.084  -2.967  1.00 56.01     0.126 C 
HETATM   30  C9    D T2346      13.831   7.369  -4.259  1.00 54.43     0.067 C 
ENDBRANCH  23  25
ENDBRANCH   7  20
TORSDOF 5
