REMARK  5 active torsions:
REMARK  status: ('A' for Active; 'I' for Inactive)
REMARK    1  A    between atoms: C17_7  and  C21_10 
REMARK    2  A    between atoms: C21_10  and  O27_12 
REMARK    3  A    between atoms: O27_12  and  C15_13 
REMARK    4  A    between atoms: C14_19  and  C16_20 
REMARK    5  A    between atoms: N26_23  and  C20_25 
ROOT
HETATM    1  C15   D T2346      -9.709   2.215  -6.120  1.00 39.29     0.125 A 
HETATM    2  C4    D T2346     -10.933   1.560  -6.376  1.00 40.72     0.029 A 
HETATM    3  C19   D T2346      -8.549   1.570  -6.578  1.00 38.96     0.173 A 
HETATM    4  N22   D T2346      -7.292   2.145  -6.357  1.00 36.18    -0.078 NA
HETATM    5  N23   D T2346      -8.566   0.391  -7.248  1.00 39.65    -0.228 NA
HETATM    6  C5    D T2346      -9.759  -0.196  -7.476  1.00 40.33     0.100 A 
HETATM    7  C14   D T2346     -10.981   0.329  -7.073  1.00 42.26     0.024 A 
ENDROOT
BRANCH   1   8
HETATM    8  O27   D T2346      -9.477   3.415  -5.475  1.00 39.48    -0.326 OA
BRANCH   8   9
HETATM    9  C21   D T2346     -10.494   4.282  -4.924  1.00 39.13     0.145 C 
HETATM   10  C1    D T2346      -9.848   5.650  -4.723  1.00 39.28     0.038 C 
BRANCH   9  11
HETATM   11  C17   D T2346     -11.093   3.723  -3.627  1.00 39.21     0.029 A 
HETATM   12  C13   D T2346     -12.479   3.428  -3.515  1.00 38.58     0.057 A 
HETATM   13 CL     D T2346     -13.635   3.689  -4.780  1.00 39.67    -0.083 Cl
HETATM   14  C3    D T2346     -13.038   2.903  -2.340  1.00 38.18     0.013 A 
HETATM   15  C2    D T2346     -12.258   2.656  -1.226  1.00 37.72     0.031 A 
HETATM   16  C12   D T2346     -10.911   2.936  -1.313  1.00 38.63     0.150 A 
HETATM   17  F     D T2346     -10.166   2.693  -0.243  1.00 38.40    -0.203 F 
HETATM   18  C18   D T2346     -10.319   3.451  -2.474  1.00 40.35     0.084 A 
HETATM   19 CL2    D T2346      -8.613   3.744  -2.366  1.00 48.02    -0.080 Cl
ENDBRANCH   9  11
ENDBRANCH   8   9
ENDBRANCH   1   8
BRANCH   7  20
HETATM   20  C16   D T2346     -12.208  -0.410  -7.351  1.00 45.17     0.042 A 
HETATM   21  C6    D T2346     -13.536  -0.295  -6.869  1.00 46.03     0.122 A 
HETATM   22  N24   D T2346     -14.362  -1.217  -7.372  1.00 47.73    -0.164 NA
HETATM   23  N26   D T2346     -13.570  -1.956  -8.180  1.00 49.42    -0.236 N 
HETATM   24  C7    D T2346     -12.284  -1.512  -8.182  1.00 47.26     0.101 A 
BRANCH  23  25
HETATM   25  C20   D T2346     -14.104  -3.089  -8.942  1.00 52.42     0.042 C 
HETATM   26  C8    D T2346     -14.365  -4.389  -8.158  1.00 53.67     0.067 C 
HETATM   27  C10   D T2346     -15.810  -4.687  -7.753  1.00 56.13     0.126 C 
HETATM   28  N25   D T2346     -16.796  -4.293  -8.816  1.00 56.98    -0.295 NA
HETATM   29  C11   D T2346     -16.641  -2.910  -9.373  1.00 56.01     0.126 C 
HETATM   30  C9    D T2346     -15.230  -2.725  -9.927  1.00 54.43     0.067 C 
ENDBRANCH  23  25
ENDBRANCH   7  20
TORSDOF 5
