REMARK  2 active torsions:
REMARK  status: ('A' for Active; 'I' for Inactive)
REMARK    1  A    between atoms: C5_4  and  O7_13 
REMARK    2  A    between atoms: C8_10  and  O7_13 
ROOT
HETATM    1  O7    D T1261       6.176   2.519  -6.780  1.00 16.95    -0.304 OA
ENDROOT
BRANCH   1   2
HETATM    2  C5    D T1261       5.904   2.343  -8.087  1.00 15.27     0.125 A 
HETATM    3  C6    D T1261       5.807   0.948  -8.552  1.00 15.82     0.154 A 
HETATM    4  C1    D T1261       5.530   0.715  -9.882  1.00 14.72     0.041 A 
HETATM    5  O17   D T1261       5.968  -0.056  -7.641  1.00 15.23    -0.188 OA
HETATM    6  C2    D T1261       5.371   1.796 -10.740  1.00 16.50     0.060 A 
HETATM    7  C3    D T1261       5.483   3.123 -10.305  1.00 16.38     0.014 A 
HETATM    8 CL14   D T1261       5.039   1.476 -12.460  1.00 19.41    -0.082 Cl
HETATM    9  C4    D T1261       5.746   3.405  -8.959  1.00 16.96     0.028 A 
ENDBRANCH   1   2
BRANCH   1  10
HETATM   10  C8    D T1261       7.462   2.622  -6.428  1.00 18.40     0.111 A 
HETATM   11  C9    D T1261       7.711   2.987  -5.037  1.00 19.92     0.081 A 
HETATM   12  C10   D T1261       9.000   3.154  -4.596  1.00 20.74     0.025 A 
HETATM   13 CL16   D T1261       6.330   3.255  -3.955  1.00 19.84    -0.080 Cl
HETATM   14  C11   D T1261      10.015   2.952  -5.498  1.00 22.72     0.059 A 
HETATM   15  C12   D T1261       9.805   2.590  -6.830  1.00 20.86     0.013 A 
HETATM   16 CL15   D T1261      11.656   3.168  -4.869  1.00 25.68    -0.082 Cl
HETATM   17  C13   D T1261       8.527   2.430  -7.315  1.00 20.39     0.026 A 
ENDBRANCH   1  10
TORSDOF 2
