REMARK  2 active torsions:
REMARK  status: ('A' for Active; 'I' for Inactive)
REMARK    1  A    between atoms: C5_4  and  O7_13 
REMARK    2  A    between atoms: C8_10  and  O7_13 
ROOT
HETATM    1  O7    D T1261       7.685   2.128  -5.902  1.00 16.95    -0.304 OA
ENDROOT
BRANCH   1   2
HETATM    2  C5    D T1261       7.543   2.108  -7.241  1.00 15.27     0.125 A 
HETATM    3  C6    D T1261       7.271   0.794  -7.851  1.00 15.82     0.154 A 
HETATM    4  C1    D T1261       7.117   0.722  -9.218  1.00 14.72     0.041 A 
HETATM    5  O17   D T1261       7.153  -0.293  -7.032  1.00 15.23    -0.188 OA
HETATM    6  C2    D T1261       7.245   1.879  -9.976  1.00 16.50     0.060 A 
HETATM    7  C3    D T1261       7.525   3.126  -9.402  1.00 16.38     0.014 A 
HETATM    8 CL14   D T1261       7.070   1.762 -11.745  1.00 19.41    -0.082 Cl
HETATM    9  C4    D T1261       7.670   3.247  -8.015  1.00 16.96     0.028 A 
ENDBRANCH   1   2
BRANCH   1  10
HETATM   10  C8    D T1261       8.919   1.972  -5.412  1.00 18.40     0.111 A 
HETATM   11  C9    D T1261       9.060   2.174  -3.973  1.00 19.92     0.081 A 
HETATM   12  C10   D T1261      10.297   2.074  -3.388  1.00 20.74     0.025 A 
HETATM   13 CL16   D T1261       7.625   2.595  -3.017  1.00 19.84    -0.080 Cl
HETATM   14  C11   D T1261      11.363   1.768  -4.196  1.00 22.72     0.059 A 
HETATM   15  C12   D T1261      11.254   1.557  -5.573  1.00 20.86     0.013 A 
HETATM   16 CL15   D T1261      12.931   1.639  -3.384  1.00 25.68    -0.082 Cl
HETATM   17  C13   D T1261      10.034   1.666  -6.200  1.00 20.39     0.026 A 
ENDBRANCH   1  10
TORSDOF 2
