REMARK  2 active torsions:
REMARK  status: ('A' for Active; 'I' for Inactive)
REMARK    1  A    between atoms: C5_4  and  O7_13 
REMARK    2  A    between atoms: C8_10  and  O7_13 
ROOT
HETATM    1  O7    D T1261       7.415   1.865  -6.196  1.00 16.95    -0.304 OA
ENDROOT
BRANCH   1   2
HETATM    2  C5    D T1261       7.262   1.728  -7.527  1.00 15.27     0.125 A 
HETATM    3  C6    D T1261       7.051   0.355  -8.022  1.00 15.82     0.154 A 
HETATM    4  C1    D T1261       6.889   0.162  -9.377  1.00 14.72     0.041 A 
HETATM    5  O17   D T1261       6.995  -0.664  -7.115  1.00 15.23    -0.188 OA
HETATM    6  C2    D T1261       6.951   1.257 -10.229  1.00 16.50     0.060 A 
HETATM    7  C3    D T1261       7.173   2.560  -9.764  1.00 16.38     0.014 A 
HETATM    8 CL14   D T1261       6.765   0.984 -11.980  1.00 19.41    -0.082 Cl
HETATM    9  C4    D T1261       7.324   2.803  -8.394  1.00 16.96     0.028 A 
ENDBRANCH   1   2
BRANCH   1  10
HETATM   10  C8    D T1261       8.660   1.812  -5.711  1.00 18.40     0.111 A 
HETATM   11  C9    D T1261       8.803   2.140  -4.296  1.00 19.92     0.081 A 
HETATM   12  C10   D T1261      10.050   2.150  -3.721  1.00 20.74     0.025 A 
HETATM   13 CL16   D T1261       7.358   2.568  -3.359  1.00 19.84    -0.080 Cl
HETATM   14  C11   D T1261      11.122   1.831  -4.516  1.00 22.72     0.059 A 
HETATM   15  C12   D T1261      11.012   1.502  -5.868  1.00 20.86     0.013 A 
HETATM   16 CL15   D T1261      12.702   1.848  -3.717  1.00 25.68    -0.082 Cl
HETATM   17  C13   D T1261       9.782   1.497  -6.486  1.00 20.39     0.026 A 
ENDBRANCH   1  10
TORSDOF 2
