REMARK  2 active torsions:
REMARK  status: ('A' for Active; 'I' for Inactive)
REMARK    1  A    between atoms: C5_4  and  O7_13 
REMARK    2  A    between atoms: C8_10  and  O7_13 
ROOT
HETATM    1  O7    D T1261      21.739   8.761  20.273  1.00 16.95    -0.304 OA
ENDROOT
BRANCH   1   2
HETATM    2  C5    D T1261      22.437   9.447  21.198  1.00 15.27     0.125 A 
HETATM    3  C6    D T1261      21.677   9.926  22.367  1.00 15.82     0.154 A 
HETATM    4  C1    D T1261      22.347  10.633  23.342  1.00 14.72     0.041 A 
HETATM    5  O17   D T1261      20.348   9.625  22.449  1.00 15.23    -0.188 OA
HETATM    6  C2    D T1261      23.703  10.888  23.183  1.00 16.50     0.060 A 
HETATM    7  C3    D T1261      24.423  10.452  22.063  1.00 16.38     0.014 A 
HETATM    8 CL14   D T1261      24.546  11.826  24.441  1.00 19.41    -0.082 Cl
HETATM    9  C4    D T1261      23.786   9.715  21.058  1.00 16.96     0.028 A 
ENDBRANCH   1   2
BRANCH   1  10
HETATM   10  C8    D T1261      21.199   9.458  19.268  1.00 18.40     0.111 A 
HETATM   11  C9    D T1261      20.604   8.667  18.195  1.00 19.92     0.081 A 
HETATM   12  C10   D T1261      20.061   9.297  17.103  1.00 20.74     0.025 A 
HETATM   13 CL16   D T1261      20.640   6.896  18.308  1.00 19.84    -0.080 Cl
HETATM   14  C11   D T1261      20.091  10.669  17.077  1.00 22.72     0.059 A 
HETATM   15  C12   D T1261      20.643  11.450  18.095  1.00 20.86     0.013 A 
HETATM   16 CL15   D T1261      19.365  11.426  15.651  1.00 25.68    -0.082 Cl
HETATM   17  C13   D T1261      21.212  10.856  19.198  1.00 20.39     0.026 A 
ENDBRANCH   1  10
TORSDOF 2
