REMARK  10 active torsions:
REMARK  status: ('A' for Active; 'I' for Inactive)
REMARK    1  A    between atoms: C7_7  and  C8_8 
REMARK       I    between atoms: C8_8  and  N9_9 
REMARK    2  A    between atoms: N9_9  and  C40_40 
REMARK    3  A    between atoms: C16_16  and  N18_18 
REMARK    4  A    between atoms: N18_18  and  C19_19 
REMARK    5  A    between atoms: C20_20  and  O25_25 
REMARK    6  A    between atoms: C22_22  and  C26_26 
REMARK    7  A    between atoms: O25_25  and  C36_36 
REMARK       I    between atoms: C26_26  and  N27_27 
REMARK    8  A    between atoms: N27_27  and  C29_29 
REMARK    9  A    between atoms: C41_41  and  C48_48 
REMARK   10  A    between atoms: C45_45  and  C46_46 
ROOT
HETATM    1  C1    D T1796      -0.480  -3.303 -11.789  1.00 54.88     0.034 C 
HETATM    2  C2    D T1796      -0.901  -4.698 -12.394  1.00 56.58     0.034 C 
HETATM    3  C3    D T1796      -1.595  -2.303 -11.808  1.00 57.01     0.021 A 
HETATM    4  C4    D T1796      -2.814  -2.556 -12.224  1.00 58.76     0.094 A 
HETATM    5  N5    D T1796      -3.544  -1.357 -12.107  1.00 60.43    -0.248 N 
HETATM    6  N6    D T1796      -2.739  -0.394 -11.614  1.00 59.38    -0.165 NA
HETATM    7  C7    D T1796      -1.587  -0.908 -11.424  1.00 58.40     0.156 A 
HETATM    8  C11   D T1796      -4.927  -1.143 -12.442  1.00 60.75     0.154 C 
HETATM    9  C12   D T1796      -3.269  -3.858 -12.678  1.00 58.23     0.114 A 
HETATM   10  C13   D T1796      -2.396  -4.884 -12.734  1.00 57.45     0.018 A 
HETATM   11  C14   D T1796      -2.915  -6.185 -13.163  1.00 57.39     0.115 A 
HETATM   12  N15   D T1796      -4.161  -6.303 -13.475  1.00 58.28    -0.058 NA
HETATM   13  C16   D T1796      -5.054  -5.183 -13.408  1.00 61.20     0.750 A 
HETATM   14  N17   D T1796      -4.615  -4.054 -13.031  1.00 59.17    -0.058 NA
ENDROOT
BRANCH  13  15
HETATM   15  N18   D T1796      -6.424  -5.285 -13.740  1.00 64.60    -0.057 NA
BRANCH  15  16
HETATM   16  C19   D T1796      -7.450  -4.282 -13.726  1.00 68.09     0.122 A 
HETATM   17  C20   D T1796      -8.152  -4.157 -14.856  1.00 69.46     0.120 A 
HETATM   18  C21   D T1796      -9.271  -3.160 -14.941  1.00 71.69     0.031 A 
HETATM   19  C22   D T1796      -9.573  -2.388 -13.884  1.00 76.06     0.060 A 
HETATM   20  C23   D T1796      -8.790  -2.504 -12.629  1.00 74.16     0.006 A 
HETATM   21  C24   D T1796      -7.774  -3.411 -12.550  1.00 70.39     0.022 A 
BRANCH  17  22
HETATM   22  O25   D T1796      -7.762  -5.016 -15.919  1.00 69.34    -0.252 OA
BRANCH  22  23
HETATM   23  C36   D T1796      -8.753  -5.784 -16.575  1.00 69.66     0.530 C 
HETATM   24  F37   D T1796      -9.305  -5.016 -17.588  1.00 69.10    -0.144 F 
HETATM   25  F38   D T1796      -9.744  -6.154 -15.684  1.00 71.00    -0.144 F 
HETATM   26  F39   D T1796      -8.206  -6.948 -17.112  1.00 69.28    -0.144 F 
ENDBRANCH  22  23
ENDBRANCH  17  22
BRANCH  19  27
HETATM   27  C26   D T1796     -10.685  -1.469 -13.982  1.00 80.81     0.275 C 
HETATM   28  N27   D T1796     -10.529  -0.152 -13.765  1.00 85.93    -0.236 NA
HETATM   29  O28   D T1796     -11.806  -1.951 -14.249  1.00 81.56    -0.266 OA
BRANCH  28  30
HETATM   30  C29   D T1796     -11.676   0.755 -13.772  1.00 90.09     0.111 C 
HETATM   31  C30   D T1796     -11.173   2.232 -13.787  1.00 91.93     0.060 C 
HETATM   32  C31   D T1796     -12.379   3.214 -13.672  1.00 93.68     0.252 C 
HETATM   33  N32   D T1796     -13.172   2.908 -12.435  1.00 95.57     0.139 N 
HETATM   34  C33   D T1796     -13.747   1.521 -12.477  1.00 93.88     0.252 C 
HETATM   35  C35   D T1796     -14.269   3.890 -12.292  1.00 96.21     0.285 C 
HETATM   36  C34   D T1796     -12.593   0.489 -12.518  1.00 91.28     0.060 C 
ENDBRANCH  28  30
ENDBRANCH  19  27
ENDBRANCH  15  16
ENDBRANCH  13  15
BRANCH   7  37
HETATM   37  C8    D T1796      -0.499  -0.143 -10.892  1.00 58.64     0.298 C 
HETATM   38  N9    D T1796      -0.823   1.021 -10.328  1.00 57.71    -0.207 NA
HETATM   39  O10   D T1796       0.677  -0.530 -10.960  1.00 57.40    -0.263 OA
BRANCH  38  40
HETATM   40  C40   D T1796       0.077   1.870  -9.665  1.00 59.16     0.077 A 
HETATM   41  C41   D T1796       0.679   2.843 -10.397  1.00 59.34    -0.005 A 
HETATM   42  C42   D T1796       1.640   3.762  -9.733  1.00 59.63    -0.003 A 
HETATM   43  C43   D T1796       1.918   3.632  -8.415  1.00 59.97    -0.001 A 
HETATM   44  C44   D T1796       1.268   2.579  -7.612  1.00 60.46    -0.003 A 
HETATM   45  C45   D T1796       0.382   1.720  -8.184  1.00 60.90    -0.005 A 
BRANCH  41  46
HETATM   46  C48   D T1796       0.340   2.966 -11.889  1.00 60.16     0.028 C 
HETATM   47  C49   D T1796       1.077   4.097 -12.611  1.00 63.57     0.005 C 
ENDBRANCH  41  46
BRANCH  45  48
HETATM   48  C46   D T1796      -0.312   0.612  -7.360  1.00 63.47     0.028 C 
HETATM   49  C47   D T1796       0.081   0.560  -5.868  1.00 66.56     0.005 C 
ENDBRANCH  45  48
ENDBRANCH  38  40
ENDBRANCH   7  37
TORSDOF 10
