REMARK  10 active torsions:
REMARK  status: ('A' for Active; 'I' for Inactive)
REMARK    1  A    between atoms: C7_7  and  C8_8 
REMARK       I    between atoms: C8_8  and  N9_9 
REMARK    2  A    between atoms: N9_9  and  C40_40 
REMARK    3  A    between atoms: C16_16  and  N18_18 
REMARK    4  A    between atoms: N18_18  and  C19_19 
REMARK    5  A    between atoms: C20_20  and  O25_25 
REMARK    6  A    between atoms: C22_22  and  C26_26 
REMARK    7  A    between atoms: O25_25  and  C36_36 
REMARK       I    between atoms: C26_26  and  N27_27 
REMARK    8  A    between atoms: N27_27  and  C29_29 
REMARK    9  A    between atoms: C41_41  and  C48_48 
REMARK   10  A    between atoms: C45_45  and  C46_46 
ROOT
HETATM    1  C1    D T1796      -8.768   4.114  -5.199  1.00 54.88     0.034 C 
HETATM    2  C2    D T1796      -8.087   3.110  -6.208  1.00 56.58     0.034 C 
HETATM    3  C3    D T1796     -10.228   3.839  -5.005  1.00 57.01     0.021 A 
HETATM    4  C4    D T1796     -10.878   2.842  -5.559  1.00 58.76     0.094 A 
HETATM    5  N5    D T1796     -12.221   2.952  -5.152  1.00 60.43    -0.248 N 
HETATM    6  N6    D T1796     -12.355   4.026  -4.347  1.00 59.38    -0.165 NA
HETATM    7  C7    D T1796     -11.209   4.574  -4.235  1.00 58.40     0.156 A 
HETATM    8  C11   D T1796     -13.312   2.082  -5.506  1.00 60.75     0.154 C 
HETATM    9  C12   D T1796     -10.261   1.832  -6.400  1.00 58.23     0.114 A 
HETATM   10  C13   D T1796      -8.947   1.921  -6.689  1.00 57.45     0.018 A 
HETATM   11  C14   D T1796      -8.366   0.855  -7.511  1.00 57.39     0.115 A 
HETATM   12  N15   D T1796      -9.115  -0.107  -7.929  1.00 58.28    -0.058 NA
HETATM   13  C16   D T1796     -10.511  -0.159  -7.603  1.00 61.20     0.750 A 
HETATM   14  N17   D T1796     -11.021   0.756  -6.887  1.00 59.17    -0.058 NA
ENDROOT
BRANCH  13  15
HETATM   15  N18   D T1796     -11.354  -1.204  -8.044  1.00 64.60    -0.057 NA
BRANCH  15  16
HETATM   16  C19   D T1796     -12.754  -1.416  -7.812  1.00 68.09     0.122 A 
HETATM   17  C20   D T1796     -13.497  -1.623  -8.903  1.00 69.46     0.120 A 
HETATM   18  C21   D T1796     -14.968  -1.887  -8.775  1.00 71.69     0.031 A 
HETATM   19  C22   D T1796     -15.549  -1.915  -7.564  1.00 76.06     0.060 A 
HETATM   20  C23   D T1796     -14.739  -1.668  -6.344  1.00 74.16     0.006 A 
HETATM   21  C24   D T1796     -13.401  -1.431  -6.460  1.00 70.39     0.022 A 
BRANCH  17  22
HETATM   22  O25   D T1796     -12.796  -1.576 -10.140  1.00 69.34    -0.252 OA
BRANCH  22  23
HETATM   23  C36   D T1796     -12.957  -2.643 -11.057  1.00 69.66     0.530 C 
HETATM   24  F37   D T1796     -14.070  -2.384 -11.840  1.00 69.10    -0.144 F 
HETATM   25  F38   D T1796     -13.135  -3.836 -10.381  1.00 71.00    -0.144 F 
HETATM   26  F39   D T1796     -11.830  -2.775 -11.867  1.00 69.28    -0.144 F 
ENDBRANCH  22  23
ENDBRANCH  17  22
BRANCH  19  27
HETATM   27  C26   D T1796     -16.960  -2.216  -7.468  1.00 80.81     0.275 C 
HETATM   28  N27   D T1796     -17.819  -1.374  -6.871  1.00 85.93    -0.236 NA
HETATM   29  O28   D T1796     -17.346  -3.307  -7.940  1.00 81.56    -0.266 OA
BRANCH  28  30
HETATM   30  C29   D T1796     -19.226  -1.731  -6.694  1.00 90.09     0.111 C 
HETATM   31  C30   D T1796     -20.031  -0.470  -6.248  1.00 91.93     0.060 C 
HETATM   32  C31   D T1796     -21.510  -0.857  -5.938  1.00 93.68     0.252 C 
HETATM   33  N32   D T1796     -21.548  -1.941  -4.900  1.00 95.57     0.139 N 
HETATM   34  C33   D T1796     -20.867  -3.190  -5.380  1.00 93.88     0.252 C 
HETATM   35  C35   D T1796     -22.954  -2.249  -4.556  1.00 96.21     0.285 C 
HETATM   36  C34   D T1796     -19.370  -2.890  -5.638  1.00 91.28     0.060 C 
ENDBRANCH  28  30
ENDBRANCH  19  27
ENDBRANCH  15  16
ENDBRANCH  13  15
BRANCH   7  37
HETATM   37  C8    D T1796     -11.008   5.742  -3.431  1.00 58.64     0.298 C 
HETATM   38  N9    D T1796     -11.988   6.042  -2.579  1.00 57.71    -0.207 NA
HETATM   39  O10   D T1796      -9.990   6.444  -3.526  1.00 57.40    -0.263 OA
BRANCH  38  40
HETATM   40  C40   D T1796     -11.945   7.083  -1.639  1.00 59.16     0.077 A 
HETATM   41  C41   D T1796     -12.438   8.292  -2.015  1.00 59.34    -0.005 A 
HETATM   42  C42   D T1796     -12.409   9.421  -1.050  1.00 59.63    -0.003 A 
HETATM   43  C43   D T1796     -11.895   9.253   0.191  1.00 59.97    -0.001 A 
HETATM   44  C44   D T1796     -11.359   7.944   0.609  1.00 60.46    -0.003 A 
HETATM   45  C45   D T1796     -11.368   6.886  -0.247  1.00 60.90    -0.005 A 
BRANCH  41  46
HETATM   46  C48   D T1796     -13.017   8.449  -3.428  1.00 60.16     0.028 C 
HETATM   47  C49   D T1796     -13.544   9.852  -3.740  1.00 63.57     0.005 C 
ENDBRANCH  41  46
BRANCH  45  48
HETATM   48  C46   D T1796     -10.814   5.506   0.173  1.00 63.47     0.028 C 
HETATM   49  C47   D T1796     -10.255   5.433   1.610  1.00 66.56     0.005 C 
ENDBRANCH  45  48
ENDBRANCH  38  40
ENDBRANCH   7  37
TORSDOF 10
