REMARK  10 active torsions:
REMARK  status: ('A' for Active; 'I' for Inactive)
REMARK    1  A    between atoms: C7_7  and  C8_8 
REMARK       I    between atoms: C8_8  and  N9_9 
REMARK    2  A    between atoms: N9_9  and  C40_40 
REMARK    3  A    between atoms: C16_16  and  N18_18 
REMARK    4  A    between atoms: N18_18  and  C19_19 
REMARK    5  A    between atoms: C20_20  and  O25_25 
REMARK    6  A    between atoms: C22_22  and  C26_26 
REMARK    7  A    between atoms: O25_25  and  C36_36 
REMARK       I    between atoms: C26_26  and  N27_27 
REMARK    8  A    between atoms: N27_27  and  C29_29 
REMARK    9  A    between atoms: C41_41  and  C48_48 
REMARK   10  A    between atoms: C45_45  and  C46_46 
ROOT
HETATM    1  C1    D T1796       2.138  12.299   1.593  1.00 54.88     0.034 A 
HETATM    2  C2    D T1796       2.200  11.275   2.792  1.00 56.58     0.034 A 
HETATM    3  C3    D T1796       3.492  12.782   1.174  1.00 57.01     0.021 A 
HETATM    4  C4    D T1796       4.624  12.369   1.695  1.00 58.76     0.094 A 
HETATM    5  N5    D T1796       5.655  13.081   1.052  1.00 60.43    -0.248 N 
HETATM    6  N6    D T1796       5.116  13.917   0.142  1.00 59.38    -0.165 NA
HETATM    7  C7    D T1796       3.850  13.773   0.181  1.00 58.40     0.156 A 
HETATM    8  C11   D T1796       7.070  12.967   1.288  1.00 60.75     0.154 C 
HETATM    9  C12   D T1796       4.726  11.345   2.719  1.00 58.23     0.114 A 
HETATM   10  C13   D T1796       3.603  10.796   3.223  1.00 57.45     0.018 A 
HETATM   11  C14   D T1796       3.763   9.740   4.227  1.00 57.39     0.115 A 
HETATM   12  N15   D T1796       4.947   9.383   4.593  1.00 58.28    -0.058 NA
HETATM   13  C16   D T1796       6.115   9.999   4.036  1.00 61.20     0.750 A 
HETATM   14  N17   D T1796       5.987  10.910   3.162  1.00 59.17    -0.058 NA
ENDROOT
BRANCH  13  15
HETATM   15  N18   D T1796       7.424   9.625   4.416  1.00 64.60    -0.057 NA
BRANCH  15  16
HETATM   16  C19   D T1796       8.691  10.124   3.964  1.00 68.09     0.122 A 
HETATM   17  C20   D T1796       9.535  10.515   4.924  1.00 69.46     0.120 A 
HETATM   18  C21   D T1796      10.900  11.024   4.566  1.00 71.69     0.031 A 
HETATM   19  C22   D T1796      11.282  11.093   3.279  1.00 76.06     0.060 A 
HETATM   20  C23   D T1796      10.348  10.681   2.202  1.00 74.16     0.006 A 
HETATM   21  C24   D T1796       9.108  10.215   2.527  1.00 70.39     0.022 A 
BRANCH  17  22
HETATM   22  O25   D T1796       9.044  10.405   6.254  1.00 69.34    -0.252 OA
BRANCH  22  23
HETATM   23  C36   D T1796       9.838   9.744   7.222  1.00 69.66     0.530 C 
HETATM   24  F37   D T1796      10.716  10.664   7.773  1.00 69.10    -0.144 F 
HETATM   25  F38   D T1796      10.555   8.716   6.637  1.00 71.00    -0.144 F 
HETATM   26  F39   D T1796       9.043   9.193   8.225  1.00 69.28    -0.144 F 
ENDBRANCH  22  23
ENDBRANCH  17  22
BRANCH  19  27
HETATM   27  C26   D T1796      12.619  11.546   2.967  1.00 80.81     0.275 C 
HETATM   28  N27   D T1796      12.835  12.595   2.155  1.00 85.93    -0.236 NA
HETATM   29  O28   D T1796      13.571  10.906   3.462  1.00 81.56    -0.266 OA
BRANCH  28  30
HETATM   30  C29   D T1796      14.190  12.985   1.770  1.00 90.09     0.111 C 
HETATM   31  C30   D T1796      14.153  14.383   1.077  1.00 91.93     0.060 C 
HETATM   32  C31   D T1796      15.571  14.762   0.551  1.00 93.68     0.252 C 
HETATM   33  N32   D T1796      16.075  13.694  -0.375  1.00 95.57     0.139 N 
HETATM   34  C33   D T1796      16.215  12.374   0.328  1.00 93.88     0.252 C 
HETATM   35  C35   D T1796      17.387  14.095  -0.929  1.00 96.21     0.285 C 
HETATM   36  C34   D T1796      14.821  11.904   0.814  1.00 91.28     0.060 C 
ENDBRANCH  28  30
ENDBRANCH  19  27
ENDBRANCH  15  16
ENDBRANCH  13  15
BRANCH   7  37
HETATM   37  C8    D T1796       2.979  14.518  -0.678  1.00 58.64     0.298 C 
HETATM   38  N9    D T1796       3.559  15.128  -1.712  1.00 57.71    -0.207 NA
HETATM   39  O10   D T1796       1.759  14.603  -0.472  1.00 57.40    -0.263 OA
BRANCH  38  40
HETATM   40  C40   D T1796       2.875  15.824  -2.721  1.00 59.16     0.077 A 
HETATM   41  C41   D T1796       2.685  17.158  -2.548  1.00 59.34    -0.005 A 
HETATM   42  C42   D T1796       1.964  17.931  -3.591  1.00 59.63    -0.003 A 
HETATM   43  C43   D T1796       1.496  17.317  -4.704  1.00 59.97    -0.001 A 
HETATM   44  C44   D T1796       1.699  15.869  -4.901  1.00 60.46    -0.003 A 
HETATM   45  C45   D T1796       2.356  15.128  -3.967  1.00 60.90    -0.005 A 
BRANCH  41  46
HETATM   46  C48   D T1796       3.230  17.825  -1.277  1.00 60.16     0.028 C 
HETATM   47  C49   D T1796       2.958  19.330  -1.191  1.00 63.57     0.005 C 
ENDBRANCH  41  46
BRANCH  45  48
HETATM   48  C46   D T1796       2.581  13.611  -4.157  1.00 63.47     0.028 C 
HETATM   49  C47   D T1796       2.006  13.019  -5.461  1.00 66.56     0.005 C 
ENDBRANCH  45  48
ENDBRANCH  38  40
ENDBRANCH   7  37
TORSDOF 10
