REMARK  10 active torsions:
REMARK  status: ('A' for Active; 'I' for Inactive)
REMARK    1  A    between atoms: C7_7  and  C8_8 
REMARK       I    between atoms: C8_8  and  N9_9 
REMARK    2  A    between atoms: N9_9  and  C40_40 
REMARK    3  A    between atoms: C16_16  and  N18_18 
REMARK    4  A    between atoms: N18_18  and  C19_19 
REMARK    5  A    between atoms: C20_20  and  O25_25 
REMARK    6  A    between atoms: C22_22  and  C26_26 
REMARK    7  A    between atoms: O25_25  and  C36_36 
REMARK       I    between atoms: C26_26  and  N27_27 
REMARK    8  A    between atoms: N27_27  and  C29_29 
REMARK    9  A    between atoms: C41_41  and  C48_48 
REMARK   10  A    between atoms: C45_45  and  C46_46 
ROOT
HETATM    1  C1    D T1796       5.613   0.292  -8.318  1.00 54.88     0.034 C 
HETATM    2  C2    D T1796       4.660   0.692  -9.510  1.00 56.58     0.034 C 
HETATM    3  C3    D T1796       6.222   1.480  -7.639  1.00 57.01     0.021 A 
HETATM    4  C4    D T1796       5.961   2.728  -7.948  1.00 58.76     0.094 A 
HETATM    5  N5    D T1796       6.750   3.533  -7.105  1.00 60.43    -0.248 N 
HETATM    6  N6    D T1796       7.479   2.742  -6.291  1.00 59.38    -0.165 NA
HETATM    7  C7    D T1796       7.199   1.530  -6.573  1.00 58.40     0.156 A 
HETATM    8  C11   D T1796       6.804   4.971  -7.072  1.00 60.75     0.154 C 
HETATM    9  C12   D T1796       5.003   3.136  -8.960  1.00 58.23     0.114 A 
HETATM   10  C13   D T1796       4.358   2.197  -9.681  1.00 57.45     0.018 A 
HETATM   11  C14   D T1796       3.374   2.661 -10.663  1.00 57.39     0.115 A 
HETATM   12  N15   D T1796       3.167   3.926 -10.809  1.00 58.28    -0.058 NA
HETATM   13  C16   D T1796       3.881   4.892 -10.026  1.00 61.20     0.750 A 
HETATM   14  N17   D T1796       4.730   4.499  -9.169  1.00 59.17    -0.058 NA
ENDROOT
BRANCH  13  15
HETATM   15  N18   D T1796       3.671   6.283 -10.162  1.00 64.60    -0.057 NA
BRANCH  15  16
HETATM   16  C19   D T1796       4.285   7.378  -9.467  1.00 68.09     0.122 A 
HETATM   17  C20   D T1796       4.810   8.333 -10.240  1.00 69.46     0.120 A 
HETATM   18  C21   D T1796       5.449   9.540  -9.618  1.00 71.69     0.031 A 
HETATM   19  C22   D T1796       5.499   9.667  -8.282  1.00 76.06     0.060 A 
HETATM   20  C23   D T1796       4.937   8.605  -7.411  1.00 74.16     0.006 A 
HETATM   21  C24   D T1796       4.353   7.509  -7.975  1.00 70.39     0.022 A 
BRANCH  17  22
HETATM   22  O25   D T1796       4.709   8.112 -11.641  1.00 69.34    -0.252 OA
BRANCH  22  23
HETATM   23  C36   D T1796       4.186   9.142 -12.459  1.00 69.66     0.530 C 
HETATM   24  F37   D T1796       5.221   9.992 -12.811  1.00 69.10    -0.144 F 
HETATM   25  F38   D T1796       3.216   9.853 -11.776  1.00 71.00    -0.144 F 
HETATM   26  F39   D T1796       3.598   8.614 -13.608  1.00 69.28    -0.144 F 
ENDBRANCH  22  23
ENDBRANCH  17  22
BRANCH  19  27
HETATM   27  C26   D T1796       6.081  10.862  -7.712  1.00 80.81     0.275 C 
HETATM   28  N27   D T1796       7.108  10.800  -6.848  1.00 85.93    -0.236 NA
HETATM   29  O28   D T1796       5.573  11.957  -8.034  1.00 81.56    -0.266 OA
BRANCH  28  30
HETATM   30  C29   D T1796       7.626  12.006  -6.204  1.00 90.09     0.111 C 
HETATM   31  C30   D T1796       8.978  11.679  -5.495  1.00 91.93     0.060 C 
HETATM   32  C31   D T1796       9.485  12.923  -4.702  1.00 93.68     0.252 C 
HETATM   33  N32   D T1796       8.436  13.368  -3.725  1.00 95.57     0.139 N 
HETATM   34  C33   D T1796       7.175  13.788  -4.423  1.00 93.88     0.252 C 
HETATM   35  C35   D T1796       8.953  14.500  -2.924  1.00 96.21     0.285 C 
HETATM   36  C34   D T1796       6.577  12.573  -5.174  1.00 91.28     0.060 C 
ENDBRANCH  28  30
ENDBRANCH  19  27
ENDBRANCH  15  16
ENDBRANCH  13  15
BRANCH   7  37
HETATM   37  C8    D T1796       7.802   0.435  -5.873  1.00 58.64     0.298 C 
HETATM   38  N9    D T1796       8.424   0.740  -4.734  1.00 57.71    -0.207 NA
HETATM   39  O10   D T1796       7.763  -0.727  -6.304  1.00 57.40    -0.263 OA
BRANCH  38  40
HETATM   40  C40   D T1796       8.992  -0.194  -3.854  1.00 59.16     0.077 A 
HETATM   41  C41   D T1796      10.304  -0.504  -4.026  1.00 59.34    -0.005 A 
HETATM   42  C42   D T1796      10.943  -1.490  -3.118  1.00 59.63    -0.003 A 
HETATM   43  C43   D T1796      10.230  -2.080  -2.130  1.00 59.97    -0.001 A 
HETATM   44  C44   D T1796       8.805  -1.749  -1.934  1.00 60.46    -0.003 A 
HETATM   45  C45   D T1796       8.185  -0.850  -2.746  1.00 60.90    -0.005 A 
BRANCH  41  46
HETATM   46  C48   D T1796      11.086   0.184  -5.154  1.00 60.16     0.028 C 
HETATM   47  C49   D T1796      12.554  -0.240  -5.252  1.00 63.57     0.005 C 
ENDBRANCH  41  46
BRANCH  45  48
HETATM   48  C46   D T1796       6.695  -0.488  -2.557  1.00 63.47     0.028 C 
HETATM   49  C47   D T1796       5.984  -1.221  -1.399  1.00 66.56     0.005 C 
ENDBRANCH  45  48
ENDBRANCH  38  40
ENDBRANCH   7  37
TORSDOF 10
