REMARK  4 active torsions:
REMARK  status: ('A' for Active; 'I' for Inactive)
REMARK    1  A    between atoms: C2_2  and  C4_4 
REMARK    2  A    between atoms: C6_6  and  C7_7 
REMARK       I    between atoms: C7_7  and  N9_9 
REMARK    3  A    between atoms: C14_14  and  C15_15 
REMARK    4  A    between atoms: C15_15  and  N16_16 
ROOT
HETATM    1  C7    D T1232      26.621   0.961 -29.592  1.00  9.97     0.260 C 
HETATM    2  O8    D T1232      26.976   1.499 -30.622  1.00 12.42    -0.267 OA
HETATM    3  N9    D T1232      27.345   1.035 -28.466  1.00 13.46    -0.308 N 
HETATM    4  C10   D T1232      28.565   1.845 -28.345  1.00 13.49     0.131 C 
HETATM    5  C11   D T1232      28.740   1.943 -26.855  1.00 13.44    -0.002 A 
HETATM    6  C12   D T1232      29.680   2.662 -26.128  1.00 17.34    -0.003 A 
HETATM    7  C13   D T1232      29.673   2.611 -24.746  1.00 16.78    -0.003 A 
HETATM    8  C14   D T1232      28.730   1.839 -24.072  1.00 25.83     0.011 A 
HETATM    9  C25   D T1232      27.796   1.128 -24.820  1.00 22.06    -0.005 A 
HETATM   10  C26   D T1232      27.803   1.187 -26.202  1.00 12.57    -0.002 A 
HETATM   11  C27   D T1232      26.911   0.472 -27.179  1.00 12.00     0.131 C 
ENDROOT
BRANCH   1  12
HETATM   12  C6    D T1232      25.392   0.121 -29.581  1.00 12.21     0.081 A 
HETATM   13  C5    D T1232      25.500  -1.262 -29.421  1.00 15.89     0.005 A 
HETATM   14  C4    D T1232      24.371  -2.079 -29.381  1.00  9.53     0.003 A 
HETATM   15  C31   D T1232      23.110  -1.466 -29.561  1.00 10.77     0.129 A 
HETATM   16  C30   D T1232      23.001  -0.093 -29.716  1.00 12.43     0.055 A 
HETATM   17  O32   D T1232      21.958  -2.201 -29.535  1.00 13.22    -0.190 OA
HETATM   18  C28   D T1232      24.145   0.704 -29.721  1.00 11.17     0.138 A 
HETATM   19  O29   D T1232      24.050   2.062 -29.882  1.00 12.20    -0.190 OA
BRANCH  14  20
HETATM   20  C2    D T1232      24.495  -3.601 -29.298  1.00 12.98     0.024 C 
HETATM   21  C1    D T1232      24.567  -4.218 -30.699  1.00 15.54     0.005 C 
HETATM   22  C3    D T1232      25.672  -4.070 -28.450  1.00 14.93     0.005 C 
ENDBRANCH  14  20
ENDBRANCH   1  12
BRANCH   8  23
HETATM   23  C15   D T1232      28.728   1.761 -22.565  1.00 39.58     0.277 C 
BRANCH  23  24
HETATM   24  N16   D T1232      29.633   0.671 -22.042  1.00 54.90     0.146 N 
HETATM   25  C18   D T1232      29.426  -0.614 -22.790  1.00 62.09     0.286 C 
HETATM   26  C19   D T1232      30.349  -1.709 -22.276  1.00 64.75     0.286 C 
HETATM   27  N20   D T1232      31.771  -1.263 -22.387  1.00 66.96     0.143 N 
HETATM   28  C22   D T1232      32.719  -2.344 -21.984  1.00 67.04     0.285 C 
HETATM   29  C23   D T1232      31.980  -0.021 -21.583  1.00 63.79     0.286 C 
HETATM   30  C24   D T1232      31.073   1.086 -22.098  1.00 59.84     0.286 C 
ENDBRANCH  23  24
ENDBRANCH   8  23
TORSDOF 4
