REMARK  4 active torsions:
REMARK  status: ('A' for Active; 'I' for Inactive)
REMARK    1  A    between atoms: C2_2  and  C4_4 
REMARK    2  A    between atoms: C6_6  and  C7_7 
REMARK       I    between atoms: C7_7  and  N9_9 
REMARK    3  A    between atoms: C14_14  and  C15_15 
REMARK    4  A    between atoms: C15_15  and  N16_16 
ROOT
HETATM    1  C7    D T1232      26.446   0.652 -29.405  1.00  9.97     0.260 C 
HETATM    2  O8    D T1232      26.831   1.233 -30.400  1.00 12.42    -0.267 OA
HETATM    3  N9    D T1232      27.186   0.587 -28.288  1.00 13.46    -0.308 N 
HETATM    4  C10   D T1232      28.467   1.290 -28.130  1.00 13.49     0.131 C 
HETATM    5  C11   D T1232      28.665   1.266 -26.640  1.00 13.44    -0.002 A 
HETATM    6  C12   D T1232      29.666   1.855 -25.879  1.00 17.34    -0.003 A 
HETATM    7  C13   D T1232      29.670   1.705 -24.504  1.00 16.78    -0.003 A 
HETATM    8  C14   D T1232      28.677   0.963 -23.871  1.00 25.83     0.011 A 
HETATM    9  C25   D T1232      27.682   0.382 -24.653  1.00 22.06    -0.005 A 
HETATM   10  C26   D T1232      27.678   0.540 -26.027  1.00 12.57    -0.002 A 
HETATM   11  C27   D T1232      26.722  -0.032 -27.038  1.00 12.00     0.131 C 
ENDROOT
BRANCH   1  12
HETATM   12  C6    D T1232      25.155  -0.089 -29.434  1.00 12.21     0.081 A 
HETATM   13  C5    D T1232      25.156  -1.485 -29.374  1.00 15.89     0.005 A 
HETATM   14  C4    D T1232      23.966  -2.212 -29.373  1.00  9.53     0.003 A 
HETATM   15  C31   D T1232      22.756  -1.491 -29.489  1.00 10.77     0.129 A 
HETATM   16  C30   D T1232      22.753  -0.106 -29.544  1.00 12.43     0.055 A 
HETATM   17  O32   D T1232      21.549  -2.134 -29.497  1.00 13.22    -0.190 OA
HETATM   18  C28   D T1232      23.957   0.598 -29.511  1.00 11.17     0.138 A 
HETATM   19  O29   D T1232      23.967   1.967 -29.574  1.00 12.20    -0.190 OA
BRANCH  14  20
HETATM   20  C2    D T1232      23.971  -3.741 -29.401  1.00 12.98     0.024 C 
HETATM   21  C1    D T1232      23.979  -4.259 -30.843  1.00 15.54     0.005 C 
HETATM   22  C3    D T1232      25.117  -4.360 -28.607  1.00 14.93     0.005 C 
ENDBRANCH  14  20
ENDBRANCH   1  12
BRANCH   8  23
HETATM   23  C15   D T1232      28.685   0.776 -22.374  1.00 39.58     0.277 C 
BRANCH  23  24
HETATM   24  N16   D T1232      29.507  -0.415 -21.945  1.00 54.90     0.146 N 
HETATM   25  C18   D T1232      29.191  -1.623 -22.778  1.00 62.09     0.286 C 
HETATM   26  C19   D T1232      30.031  -2.821 -22.359  1.00 64.75     0.286 C 
HETATM   27  N20   D T1232      31.482  -2.480 -22.461  1.00 66.96     0.143 N 
HETATM   28  C22   D T1232      32.347  -3.657 -22.152  1.00 67.04     0.285 C 
HETATM   29  C23   D T1232      31.797  -1.319 -21.574  1.00 63.79     0.286 C 
HETATM   30  C24   D T1232      30.974  -0.110 -21.994  1.00 59.84     0.286 C 
ENDBRANCH  23  24
ENDBRANCH   8  23
TORSDOF 4
