REMARK  4 active torsions:
REMARK  status: ('A' for Active; 'I' for Inactive)
REMARK    1  A    between atoms: C2_2  and  C4_4 
REMARK    2  A    between atoms: C6_6  and  C7_7 
REMARK       I    between atoms: C7_7  and  N9_9 
REMARK    3  A    between atoms: C14_14  and  C15_15 
REMARK    4  A    between atoms: C15_15  and  N16_16 
ROOT
HETATM    1  C7    D T1232      26.622   0.449 -29.656  1.00  9.97     0.260 C 
HETATM    2  O8    D T1232      26.998   1.003 -30.670  1.00 12.42    -0.267 OA
HETATM    3  N9    D T1232      27.353   0.450 -28.532  1.00 13.46    -0.308 N 
HETATM    4  C10   D T1232      28.613   1.195 -28.392  1.00 13.49     0.131 C 
HETATM    5  C11   D T1232      28.799   1.235 -26.901  1.00 13.44    -0.002 A 
HETATM    6  C12   D T1232      29.776   1.883 -26.156  1.00 17.34    -0.003 A 
HETATM    7  C13   D T1232      29.773   1.785 -24.776  1.00 16.78    -0.003 A 
HETATM    8  C14   D T1232      28.797   1.039 -24.123  1.00 25.83     0.011 A 
HETATM    9  C25   D T1232      27.825   0.399 -24.888  1.00 22.06    -0.005 A 
HETATM   10  C26   D T1232      27.829   0.504 -26.268  1.00 12.57    -0.002 A 
HETATM   11  C27   D T1232      26.898  -0.134 -27.262  1.00 12.00     0.131 C 
ENDROOT
BRANCH   1  12
HETATM   12  C6    D T1232      25.353  -0.330 -29.665  1.00 12.21     0.081 A 
HETATM   13  C5    D T1232      25.394  -1.721 -29.551  1.00 15.89     0.005 A 
HETATM   14  C4    D T1232      24.226  -2.483 -29.531  1.00  9.53     0.003 A 
HETATM   15  C31   D T1232      22.997  -1.803 -29.683  1.00 10.77     0.129 A 
HETATM   16  C30   D T1232      22.954  -0.422 -29.792  1.00 12.43     0.055 A 
HETATM   17  O32   D T1232      21.810  -2.482 -29.674  1.00 13.22    -0.190 OA
HETATM   18  C28   D T1232      24.136   0.318 -29.778  1.00 11.17     0.138 A 
HETATM   19  O29   D T1232      24.106   1.684 -29.893  1.00 12.20    -0.190 OA
BRANCH  14  20
HETATM   20  C2    D T1232      24.276  -4.011 -29.499  1.00 12.98     0.024 C 
HETATM   21  C1    D T1232      24.312  -4.584 -30.920  1.00 15.54     0.005 C 
HETATM   22  C3    D T1232      25.433  -4.565 -28.674  1.00 14.93     0.005 C 
ENDBRANCH  14  20
ENDBRANCH   1  12
BRANCH   8  23
HETATM   23  C15   D T1232      28.798   0.910 -22.619  1.00 39.58     0.277 C 
BRANCH  23  24
HETATM   24  N16   D T1232      29.650  -0.239 -22.138  1.00 54.90     0.146 N 
HETATM   25  C18   D T1232      29.377  -1.487 -22.927  1.00 62.09     0.286 C 
HETATM   26  C19   D T1232      30.249  -2.642 -22.455  1.00 64.75     0.286 C 
HETATM   27  N20   D T1232      31.690  -2.262 -22.560  1.00 66.96     0.143 N 
HETATM   28  C22   D T1232      32.586  -3.401 -22.199  1.00 67.04     0.285 C 
HETATM   29  C23   D T1232      31.963  -1.059 -21.716  1.00 63.79     0.286 C 
HETATM   30  C24   D T1232      31.109   0.107 -22.189  1.00 59.84     0.286 C 
ENDBRANCH  23  24
ENDBRANCH   8  23
TORSDOF 4
