REMARK  5 active torsions:
REMARK  status: ('A' for Active; 'I' for Inactive)
REMARK    1  A    between atoms: C17_7  and  C21_10 
REMARK    2  A    between atoms: C21_10  and  O27_12 
REMARK    3  A    between atoms: O27_12  and  C15_13 
REMARK    4  A    between atoms: C14_19  and  C16_20 
REMARK    5  A    between atoms: N26_23  and  C20_25 
ROOT
HETATM    1  C15   D T9000      -4.402   1.117  13.714  1.00 32.23     0.125 A 
HETATM    2  C4    D T9000      -3.450   0.175  14.248  1.00 32.87     0.029 A 
HETATM    3  C19   D T9000      -5.736   0.619  13.520  1.00 30.98     0.173 A 
HETATM    4  N22   D T9000      -6.721   1.486  13.006  1.00 26.96    -0.078 NA
HETATM    5  N23   D T9000      -6.127  -0.648  13.805  1.00 30.39    -0.228 NA
HETATM    6  C5    D T9000      -5.202  -1.516  14.308  1.00 33.14     0.100 A 
HETATM    7  C14   D T9000      -3.837  -1.170  14.554  1.00 34.48     0.024 A 
ENDROOT
BRANCH   1   8
HETATM    8  O27   D T9000      -4.133   2.457  13.396  1.00 33.85    -0.326 OA
BRANCH   8   9
HETATM    9  C21   D T9000      -2.805   3.043  13.167  1.00 39.13     0.145 C 
HETATM   10  C1    D T9000      -3.040   4.549  12.945  1.00 37.31     0.038 C 
BRANCH   9  11
HETATM   11  C17   D T9000      -2.015   2.402  11.973  1.00 43.03     0.029 A 
HETATM   12  C13   D T9000      -0.736   1.743  12.227  1.00 43.22     0.057 A 
HETATM   13 CL     D T9000      -0.017   1.618  13.811  1.00 44.26    -0.083 Cl
HETATM   14  C3    D T9000      -0.006   1.159  11.150  1.00 43.32     0.013 A 
HETATM   15  C2    D T9000      -0.501   1.203   9.822  1.00 42.25     0.031 A 
HETATM   16  C12   D T9000      -1.740   1.833   9.527  1.00 45.15     0.150 A 
HETATM   17  F     D T9000      -2.166   1.850   8.252  1.00 42.99    -0.203 F 
HETATM   18  C18   D T9000      -2.514   2.439  10.586  1.00 44.96     0.084 A 
HETATM   19 CL2    D T9000      -4.036   3.194  10.133  1.00 59.14    -0.080 Cl
ENDBRANCH   9  11
ENDBRANCH   8   9
ENDBRANCH   1   8
BRANCH   7  20
HETATM   20  C16   D T9000      -2.830  -2.165  15.118  1.00 36.37     0.041 A 
HETATM   21  C6    D T9000      -1.369  -2.066  15.097  1.00 37.83     0.122 A 
HETATM   22  N24   D T9000      -0.869  -3.104  15.672  1.00 39.52    -0.168 NA
HETATM   23  N26   D T9000      -1.813  -3.882  16.073  1.00 39.89    -0.252 N 
HETATM   24  C7    D T9000      -3.092  -3.372  15.767  1.00 38.44     0.097 A 
BRANCH  23  25
HETATM   25  C20   D T9000      -1.527  -5.160  16.776  1.00 45.76     0.110 C 
HETATM   26  C8    D T9000      -1.759  -6.361  15.832  1.00 48.47     0.063 C 
HETATM   27  C10   D T9000      -1.451  -7.678  16.586  1.00 51.46     0.292 C 
HETATM   28  N25   D T9000      -2.239  -7.804  17.847  1.00 52.65     0.339 N 
HETATM   29  C11   D T9000      -2.065  -6.635  18.757  1.00 50.34     0.292 C 
HETATM   30  C9    D T9000      -2.392  -5.297  18.056  1.00 49.34     0.063 C 
ENDBRANCH  23  25
ENDBRANCH   7  20
TORSDOF 5
