REMARK  5 active torsions:
REMARK  status: ('A' for Active; 'I' for Inactive)
REMARK    1  A    between atoms: C17_7  and  C21_10 
REMARK    2  A    between atoms: C21_10  and  O27_12 
REMARK    3  A    between atoms: O27_12  and  C15_13 
REMARK    4  A    between atoms: C14_19  and  C16_20 
REMARK    5  A    between atoms: N26_23  and  C20_25 
ROOT
HETATM    1  C15   D T9000      -5.014  -3.441  10.449  1.00 32.23     0.125 A 
HETATM    2  C4    D T9000      -4.146  -4.523  10.843  1.00 32.87     0.029 A 
HETATM    3  C19   D T9000      -6.286  -3.824   9.900  1.00 30.98     0.173 A 
HETATM    4  N22   D T9000      -7.188  -2.819   9.498  1.00 26.96    -0.078 NA
HETATM    5  N23   D T9000      -6.693  -5.109   9.741  1.00 30.39    -0.228 NA
HETATM    6  C5    D T9000      -5.848  -6.110  10.122  1.00 33.14     0.100 A 
HETATM    7  C14   D T9000      -4.551  -5.888  10.682  1.00 34.48     0.024 A 
ENDROOT
BRANCH   1   8
HETATM    8  O27   D T9000      -4.723  -2.074  10.577  1.00 33.85    -0.326 OA
BRANCH   8   9
HETATM    9  C21   D T9000      -3.388  -1.486  10.751  1.00 39.13     0.145 C 
HETATM   10  C1    D T9000      -3.613   0.027  10.933  1.00 37.31     0.038 C 
BRANCH   9  11
HETATM   11  C17   D T9000      -2.395  -1.781   9.573  1.00 43.03     0.029 A 
HETATM   12  C13   D T9000      -1.163  -2.522   9.838  1.00 43.22     0.057 A 
HETATM   13 CL     D T9000      -0.719  -3.114  11.416  1.00 44.26    -0.083 Cl
HETATM   14  C3    D T9000      -0.251  -2.795   8.776  1.00 43.32     0.013 A 
HETATM   15  C2    D T9000      -0.516  -2.359   7.453  1.00 42.25     0.031 A 
HETATM   16  C12   D T9000      -1.700  -1.636   7.149  1.00 45.15     0.150 A 
HETATM   17  F     D T9000      -1.906  -1.244   5.879  1.00 42.99    -0.203 F 
HETATM   18  C18   D T9000      -2.654  -1.336   8.191  1.00 44.96     0.084 A 
HETATM   19 CL2    D T9000      -4.094  -0.439   7.725  1.00 59.14    -0.080 Cl
ENDBRANCH   9  11
ENDBRANCH   8   9
ENDBRANCH   1   8
BRANCH   7  20
HETATM   20  C16   D T9000      -3.633  -7.031  11.097  1.00 36.37     0.041 A 
HETATM   21  C6    D T9000      -2.192  -6.972  11.350  1.00 37.83     0.122 A 
HETATM   22  N24   D T9000      -1.774  -8.145  11.679  1.00 39.52    -0.168 NA
HETATM   23  N26   D T9000      -2.756  -8.977  11.677  1.00 39.89    -0.252 N 
HETATM   24  C7    D T9000      -3.976  -8.365  11.321  1.00 38.44     0.097 A 
BRANCH  23  25
HETATM   25  C20   D T9000      -2.567 -10.411  12.022  1.00 45.76     0.110 C 
HETATM   26  C8    D T9000      -2.611 -11.285  10.750  1.00 48.47     0.063 C 
HETATM   27  C10   D T9000      -2.408 -12.770  11.136  1.00 51.46     0.292 C 
HETATM   28  N25   D T9000      -3.394 -13.229  12.158  1.00 52.65     0.339 N 
HETATM   29  C11   D T9000      -3.400 -12.374  13.380  1.00 50.34     0.292 C 
HETATM   30  C9    D T9000      -3.631 -10.882  13.047  1.00 49.34     0.063 C 
ENDBRANCH  23  25
ENDBRANCH   7  20
TORSDOF 5
