REMARK  5 active torsions:
REMARK  status: ('A' for Active; 'I' for Inactive)
REMARK    1  A    between atoms: C17_7  and  C21_10 
REMARK    2  A    between atoms: C21_10  and  O27_12 
REMARK    3  A    between atoms: O27_12  and  C15_13 
REMARK    4  A    between atoms: C14_19  and  C16_20 
REMARK    5  A    between atoms: N26_23  and  C20_25 
ROOT
HETATM    1  C15   D T9000       4.020  11.595   2.779  1.00 32.23     0.125 A 
HETATM    2  C4    D T9000       5.453  11.692   2.917  1.00 32.87     0.029 A 
HETATM    3  C19   D T9000       3.408  10.439   3.374  1.00 30.98     0.173 A 
HETATM    4  N22   D T9000       2.012  10.282   3.283  1.00 26.96    -0.078 NA
HETATM    5  N23   D T9000       4.090   9.470   4.036  1.00 30.39    -0.228 NA
HETATM    6  C5    D T9000       5.444   9.589   4.149  1.00 33.14     0.100 A 
HETATM    7  C14   D T9000       6.195  10.680   3.608  1.00 34.48     0.024 A 
ENDROOT
BRANCH   1   8
HETATM    8  O27   D T9000       3.198  12.535   2.138  1.00 33.85    -0.326 OA
BRANCH   8   9
HETATM    9  C21   D T9000       3.635  13.552   1.172  1.00 39.13     0.145 C 
HETATM   10  C1    D T9000       2.382  14.383   0.837  1.00 37.31     0.038 C 
BRANCH   9  11
HETATM   11  C17   D T9000       4.301  12.967  -0.123  1.00 43.03     0.029 A 
HETATM   12  C13   D T9000       5.687  13.308  -0.436  1.00 43.22     0.057 A 
HETATM   13 CL     D T9000       6.671  14.343   0.563  1.00 44.26    -0.083 Cl
HETATM   14  C3    D T9000       6.303  12.785  -1.612  1.00 43.32     0.013 A 
HETATM   15  C2    D T9000       5.592  11.932  -2.493  1.00 42.25     0.031 A 
HETATM   16  C12   D T9000       4.242  11.575  -2.229  1.00 45.15     0.150 A 
HETATM   17  F     D T9000       3.611  10.764  -3.096  1.00 42.99    -0.203 F 
HETATM   18  C18   D T9000       3.577  12.079  -1.051  1.00 44.96     0.084 A 
HETATM   19 CL2    D T9000       1.908  11.584  -0.800  1.00 59.14    -0.080 Cl
ENDBRANCH   9  11
ENDBRANCH   8   9
ENDBRANCH   1   8
BRANCH   7  20
HETATM   20  C16   D T9000       7.709  10.782   3.753  1.00 36.37     0.041 A 
HETATM   21  C6    D T9000       8.625  11.625   2.982  1.00 37.83     0.122 A 
HETATM   22  N24   D T9000       9.828  11.429   3.399  1.00 39.52    -0.168 NA
HETATM   23  N26   D T9000       9.827  10.563   4.351  1.00 39.89    -0.252 N 
HETATM   24  C7    D T9000       8.530  10.094   4.647  1.00 38.44     0.097 A 
BRANCH  23  25
HETATM   25  C20   D T9000      11.083  10.144   5.027  1.00 45.76     0.110 C 
HETATM   26  C8    D T9000      11.507   8.735   4.557  1.00 48.47     0.063 C 
HETATM   27  C10   D T9000      12.817   8.324   5.272  1.00 51.46     0.292 C 
HETATM   28  N25   D T9000      12.698   8.400   6.758  1.00 52.65     0.339 N 
HETATM   29  C11   D T9000      12.249   9.740   7.234  1.00 50.34     0.292 C 
HETATM   30  C9    D T9000      10.924  10.181   6.569  1.00 49.34     0.063 C 
ENDBRANCH  23  25
ENDBRANCH   7  20
TORSDOF 5
