REMARK  5 active torsions:
REMARK  status: ('A' for Active; 'I' for Inactive)
REMARK    1  A    between atoms: C17_7  and  C21_10 
REMARK    2  A    between atoms: C21_10  and  O27_12 
REMARK    3  A    between atoms: O27_12  and  C15_13 
REMARK    4  A    between atoms: C14_19  and  C16_20 
REMARK    5  A    between atoms: N26_23  and  C20_25 
ROOT
HETATM    1  C15   D T9000       7.970   2.084  -7.426  1.00 32.23     0.125 A 
HETATM    2  C4    D T9000       9.000   2.671  -6.604  1.00 32.87     0.029 A 
HETATM    3  C19   D T9000       7.064   3.006  -8.052  1.00 30.98     0.173 A 
HETATM    4  N22   D T9000       6.035   2.504  -8.872  1.00 26.96    -0.078 NA
HETATM    5  N23   D T9000       7.129   4.354  -7.912  1.00 30.39    -0.228 NA
HETATM    6  C5    D T9000       8.114   4.880  -7.127  1.00 33.14     0.100 A 
HETATM    7  C14   D T9000       9.088   4.092  -6.438  1.00 34.48     0.024 A 
ENDROOT
BRANCH   1   8
HETATM    8  O27   D T9000       7.804   0.711  -7.667  1.00 33.85    -0.326 OA
BRANCH   8   9
HETATM    9  C21   D T9000       8.358  -0.384  -6.859  1.00 39.13     0.145 C 
HETATM   10  C1    D T9000       7.971  -1.684  -7.588  1.00 37.31     0.038 C 
BRANCH   9  11
HETATM   11  C17   D T9000       7.872  -0.394  -5.368  1.00 43.03     0.029 A 
HETATM   12  C13   D T9000       8.849  -0.251  -4.291  1.00 43.22     0.057 A 
HETATM   13 CL     D T9000      10.560  -0.061  -4.566  1.00 44.26    -0.083 Cl
HETATM   14  C3    D T9000       8.421  -0.261  -2.931  1.00 43.32     0.013 A 
HETATM   15  C2    D T9000       7.051  -0.408  -2.596  1.00 42.25     0.031 A 
HETATM   16  C12   D T9000       6.065  -0.551  -3.610  1.00 45.15     0.150 A 
HETATM   17  F     D T9000       4.780  -0.689  -3.242  1.00 42.99    -0.203 F 
HETATM   18  C18   D T9000       6.452  -0.546  -5.001  1.00 44.96     0.084 A 
HETATM   19 CL2    D T9000       5.168  -0.726  -6.189  1.00 59.14    -0.080 Cl
ENDBRANCH   9  11
ENDBRANCH   8   9
ENDBRANCH   1   8
BRANCH   7  20
HETATM   20  C16   D T9000      10.176   4.711  -5.569  1.00 36.37     0.041 A 
HETATM   21  C6    D T9000      10.999   4.045  -4.558  1.00 37.83     0.122 A 
HETATM   22  N24   D T9000      11.804   4.906  -4.038  1.00 39.52    -0.168 NA
HETATM   23  N26   D T9000      11.622   6.060  -4.577  1.00 39.89    -0.252 N 
HETATM   24  C7    D T9000      10.609   6.038  -5.559  1.00 38.44     0.097 A 
BRANCH  23  25
HETATM   25  C20   D T9000      12.419   7.248  -4.171  1.00 45.76     0.110 C 
HETATM   26  C8    D T9000      11.573   8.194  -3.292  1.00 48.47     0.063 C 
HETATM   27  C10   D T9000      12.426   9.418  -2.880  1.00 51.46     0.292 C 
HETATM   28  N25   D T9000      13.003  10.127  -4.060  1.00 52.65     0.339 N 
HETATM   29  C11   D T9000      13.790   9.224  -4.948  1.00 50.34     0.292 C 
HETATM   30  C9    D T9000      12.968   7.999  -5.411  1.00 49.34     0.063 C 
ENDBRANCH  23  25
ENDBRANCH   7  20
TORSDOF 5
