REMARK  5 active torsions:
REMARK  status: ('A' for Active; 'I' for Inactive)
REMARK    1  A    between atoms: C17_7  and  C21_10 
REMARK    2  A    between atoms: C21_10  and  O27_12 
REMARK    3  A    between atoms: O27_12  and  C15_13 
REMARK    4  A    between atoms: C14_19  and  C16_20 
REMARK    5  A    between atoms: N26_23  and  C20_25 
ROOT
HETATM    1  C15   D T9000      -9.316   2.522  -6.600  1.00 32.23     0.125 A 
HETATM    2  C4    D T9000     -10.539   1.829  -6.922  1.00 32.87     0.029 A 
HETATM    3  C19   D T9000      -8.099   1.820  -6.900  1.00 30.98     0.173 A 
HETATM    4  N22   D T9000      -6.865   2.438  -6.617  1.00 26.96    -0.078 NA
HETATM    5  N23   D T9000      -8.048   0.581  -7.453  1.00 30.39    -0.228 NA
HETATM    6  C5    D T9000      -9.223  -0.049  -7.745  1.00 33.14     0.100 A 
HETATM    7  C14   D T9000     -10.512   0.519  -7.502  1.00 34.48     0.024 A 
ENDROOT
BRANCH   1   8
HETATM    8  O27   D T9000      -9.229   3.808  -6.046  1.00 33.85    -0.326 OA
BRANCH   8   9
HETATM    9  C21   D T9000     -10.302   4.521  -5.338  1.00 39.13     0.145 C 
HETATM   10  C1    D T9000      -9.739   5.917  -5.013  1.00 37.31     0.038 C 
BRANCH   9  11
HETATM   11  C17   D T9000     -10.816   3.793  -4.047  1.00 43.03     0.029 A 
HETATM   12  C13   D T9000     -12.213   3.371  -3.967  1.00 43.22     0.057 A 
HETATM   13 CL     D T9000     -13.369   3.628  -5.246  1.00 44.26    -0.083 Cl
HETATM   14  C3    D T9000     -12.694   2.711  -2.798  1.00 43.32     0.013 A 
HETATM   15  C2    D T9000     -11.837   2.450  -1.699  1.00 42.25     0.031 A 
HETATM   16  C12   D T9000     -10.471   2.843  -1.733  1.00 45.15     0.150 A 
HETATM   17  F     D T9000      -9.699   2.575  -0.666  1.00 42.99    -0.203 F 
HETATM   18  C18   D T9000      -9.939   3.514  -2.896  1.00 44.96     0.084 A 
HETATM   19 CL2    D T9000      -8.239   3.962  -2.853  1.00 59.14    -0.080 Cl
ENDBRANCH   9  11
ENDBRANCH   8   9
ENDBRANCH   1   8
BRANCH   7  20
HETATM   20  C16   D T9000     -11.805  -0.213  -7.841  1.00 36.37     0.041 A 
HETATM   21  C6    D T9000     -13.153   0.081  -7.349  1.00 37.83     0.122 A 
HETATM   22  N24   D T9000     -13.981  -0.761  -7.864  1.00 39.52    -0.168 NA
HETATM   23  N26   D T9000     -13.354  -1.577  -8.637  1.00 39.89    -0.252 N 
HETATM   24  C7    D T9000     -11.970  -1.310  -8.688  1.00 38.44     0.097 A 
BRANCH  23  25
HETATM   25  C20   D T9000     -14.062  -2.660  -9.370  1.00 45.76     0.110 C 
HETATM   26  C8    D T9000     -13.793  -4.029  -8.708  1.00 48.47     0.063 C 
HETATM   27  C10   D T9000     -14.543  -5.136  -9.487  1.00 51.46     0.292 C 
HETATM   28  N25   D T9000     -14.192  -5.144 -10.937  1.00 52.65     0.339 N 
HETATM   29  C11   D T9000     -14.403  -3.820 -11.590  1.00 50.34     0.292 C 
HETATM   30  C9    D T9000     -13.646  -2.684 -10.864  1.00 49.34     0.063 C 
ENDBRANCH  23  25
ENDBRANCH   7  20
TORSDOF 5
