REMARK  5 active torsions:
REMARK  status: ('A' for Active; 'I' for Inactive)
REMARK    1  A    between atoms: C17_7  and  C21_10 
REMARK    2  A    between atoms: C21_10  and  O27_12 
REMARK    3  A    between atoms: O27_12  and  C15_13 
REMARK    4  A    between atoms: C14_19  and  C16_20 
REMARK    5  A    between atoms: N26_23  and  C20_25 
ROOT
HETATM    1  C15   D T9000      -3.275  -6.963  -5.895  1.00 32.23     0.125 A 
HETATM    2  C4    D T9000      -4.277  -7.982  -6.095  1.00 32.87     0.029 A 
HETATM    3  C19   D T9000      -2.033  -7.408  -5.326  1.00 30.98     0.173 A 
HETATM    4  N22   D T9000      -1.007  -6.468  -5.106  1.00 26.96    -0.078 NA
HETATM    5  N23   D T9000      -1.767  -8.693  -4.981  1.00 30.39    -0.228 NA
HETATM    6  C5    D T9000      -2.736  -9.633  -5.181  1.00 33.14     0.100 A 
HETATM    7  C14   D T9000      -4.022  -9.345  -5.736  1.00 34.48     0.024 A 
ENDROOT
BRANCH   1   8
HETATM    8  O27   D T9000      -3.415  -5.606  -6.225  1.00 33.85    -0.326 OA
BRANCH   8   9
HETATM    9  C21   D T9000      -4.682  -4.897  -6.454  1.00 39.13     0.145 C 
HETATM   10  C1    D T9000      -4.294  -3.466  -6.873  1.00 37.31     0.038 C 
BRANCH   9  11
HETATM   11  C17   D T9000      -5.650  -4.892  -5.220  1.00 43.03     0.029 A 
HETATM   12  C13   D T9000      -6.968  -5.513  -5.337  1.00 43.22     0.057 A 
HETATM   13 CL     D T9000      -7.543  -6.279  -6.794  1.00 44.26    -0.083 Cl
HETATM   14  C3    D T9000      -7.859  -5.514  -4.223  1.00 43.32     0.013 A 
HETATM   15  C2    D T9000      -7.490  -4.919  -2.990  1.00 42.25     0.031 A 
HETATM   16  C12   D T9000      -6.219  -4.304  -2.831  1.00 45.15     0.150 A 
HETATM   17  F     D T9000      -5.916  -3.753  -1.643  1.00 42.99    -0.203 F 
HETATM   18  C18   D T9000      -5.283  -4.279  -3.931  1.00 44.96     0.084 A 
HETATM   19 CL2    D T9000      -3.733  -3.499  -3.645  1.00 59.14    -0.080 Cl
ENDBRANCH   9  11
ENDBRANCH   8   9
ENDBRANCH   1   8
BRANCH   7  20
HETATM   20  C16   D T9000      -5.080 -10.421  -5.947  1.00 36.37     0.041 A 
HETATM   21  C6    D T9000      -6.515 -10.230  -6.170  1.00 37.83     0.122 A 
HETATM   22  N24   D T9000      -7.076 -11.382  -6.303  1.00 39.52    -0.168 NA
HETATM   23  N26   D T9000      -6.196 -12.314  -6.198  1.00 39.89    -0.252 N 
HETATM   24  C7    D T9000      -4.901 -11.804  -5.971  1.00 38.44     0.097 A 
BRANCH  23  25
HETATM   25  C20   D T9000      -6.561 -13.751  -6.313  1.00 45.76     0.110 C 
HETATM   26  C8    D T9000      -6.562 -14.423  -4.922  1.00 48.47     0.063 C 
HETATM   27  C10   D T9000      -6.948 -15.915  -5.069  1.00 51.46     0.292 C 
HETATM   28  N25   D T9000      -6.065 -16.636  -6.033  1.00 52.65     0.339 N 
HETATM   29  C11   D T9000      -6.014 -15.981  -7.372  1.00 50.34     0.292 C 
HETATM   30  C9    D T9000      -5.602 -14.494  -7.279  1.00 49.34     0.063 C 
ENDBRANCH  23  25
ENDBRANCH   7  20
TORSDOF 5
