REMARK  7 active torsions:
REMARK  status: ('A' for Active; 'I' for Inactive)
REMARK    1  A    between atoms: C22_10  and  C19_16 
REMARK       I    between atoms: C22_10  and  N25_19 
REMARK    2  A    between atoms: C12_12  and  C18_15 
REMARK    3  A    between atoms: N25_19  and  C37_23 
REMARK    4  A    between atoms: C37_23  and  C38_24 
REMARK    5  A    between atoms: C38_24  and  N4_25 
REMARK    6  A    between atoms: N4_25  and  C39_26 
REMARK    7  A    between atoms: N4_25  and  C40_27 
ROOT
HETATM    1  C4    D T1294       3.824   8.648 -10.575  1.00 32.29     0.052 C 
HETATM    2  C13   D T1294       5.844   7.219  -7.732  1.00 33.66     0.002 A 
HETATM    3  C3    D T1294       6.764   6.982  -6.525  1.00 26.27     0.033 C 
HETATM    4  C14   D T1294       4.550   7.878  -9.528  1.00 36.57     0.064 A 
HETATM    5  C18   D T1294       5.253   6.116  -8.428  1.00 31.41     0.077 A 
HETATM    6  C19   D T1294       5.438   8.340  -8.462  1.00 39.79     0.069 A 
HETATM    7  N23   D T1294       4.492   6.571  -9.431  1.00 32.77    -0.250 NA
ENDROOT
BRANCH   5   8
HETATM    8  C12   D T1294       5.526   4.613  -8.078  1.00 29.19     0.024 C 
HETATM    9  C20   D T1294       5.035   3.478  -8.732  1.00 28.62     0.061 A 
HETATM   10  C17   D T1294       5.401   2.173  -8.364  1.00 28.15     0.025 A 
HETATM   11  C21   D T1294       4.139   3.305  -9.847  1.00 24.63     0.279 A 
HETATM   12  C7    D T1294       6.281   1.725  -7.338  1.00 25.53     0.031 A 
HETATM   13  C16   D T1294       4.725   1.245  -9.254  1.00 25.62     0.085 A 
HETATM   14  C15   D T1294       6.480   0.339  -7.211  1.00 28.19     0.140 A 
HETATM   15  C5    D T1294       5.829  -0.651  -8.098  1.00 25.66     0.031 A 
HETATM   16  F29   D T1294       7.239  -0.094  -6.315  1.00 36.26    -0.204 F 
HETATM   17  C6    D T1294       4.964  -0.247  -9.055  1.00 26.69     0.021 A 
HETATM   18  N24   D T1294       3.922   1.972 -10.188  1.00 23.74    -0.208 NA
HETATM   19  O27   D T1294       3.593   4.195 -10.397  1.00 23.40    -0.265 OA
ENDBRANCH   5   8
BRANCH   6  20
HETATM   20  C22   D T1294       5.771   9.743  -8.312  1.00 51.05     0.280 C 
HETATM   21  N25   D T1294       6.825   9.970  -7.528  1.00 55.83    -0.209 NA
HETATM   22  O28   D T1294       5.212  10.639  -8.870  1.00 56.66    -0.265 OA
BRANCH  21  23
HETATM   23  C37   D T1294       7.347  11.226  -7.247  1.00 58.65     0.101 C 
BRANCH  23  24
HETATM   24  C38   D T1294       8.201  11.534  -8.465  1.00 62.48     0.153 C 
BRANCH  24  25
HETATM   25  N4    D T1294       9.609  12.070  -8.323  1.00 67.11    -0.327 N 
BRANCH  25  26
HETATM   26  C39   D T1294       9.879  12.942  -9.600  1.00 68.16     0.049 C 
HETATM   27  C42   D T1294       8.771  13.316 -10.702  1.00 67.52     0.051 C 
ENDBRANCH  25  26
BRANCH  25  28
HETATM   28  C40   D T1294      10.734  11.091  -7.615  1.00 67.42     0.049 C 
HETATM   29  C41   D T1294      11.849  10.233  -8.264  1.00 66.32     0.051 C 
ENDBRANCH  25  28
ENDBRANCH  24  25
ENDBRANCH  23  24
ENDBRANCH  21  23
ENDBRANCH   6  20
TORSDOF 7
