REMARK  7 active torsions:
REMARK  status: ('A' for Active; 'I' for Inactive)
REMARK    1  A    between atoms: C22_10  and  C19_16 
REMARK       I    between atoms: C22_10  and  N25_19 
REMARK    2  A    between atoms: C12_12  and  C18_15 
REMARK    3  A    between atoms: N25_19  and  C37_23 
REMARK    4  A    between atoms: C37_23  and  C38_24 
REMARK    5  A    between atoms: C38_24  and  N4_25 
REMARK    6  A    between atoms: N4_25  and  C39_26 
REMARK    7  A    between atoms: N4_25  and  C40_27 
ROOT
HETATM    1  C4    D T1294      -8.385  -5.762 -14.750  1.00 32.29     0.052 C 
HETATM    2  C13   D T1294      -6.947  -2.679 -13.125  1.00 33.66     0.002 A 
HETATM    3  C3    D T1294      -6.678  -1.277 -12.560  1.00 26.27     0.033 C 
HETATM    4  C14   D T1294      -7.625  -4.670 -14.082  1.00 36.57     0.064 A 
HETATM    5  C18   D T1294      -5.925  -3.681 -13.113  1.00 31.41     0.077 A 
HETATM    6  C19   D T1294      -8.015  -3.291 -13.788  1.00 39.79     0.069 A 
HETATM    7  N23   D T1294      -6.395  -4.814 -13.648  1.00 32.77    -0.250 NA
ENDROOT
BRANCH   5   8
HETATM    8  C12   D T1294      -4.465  -3.435 -12.596  1.00 29.19     0.024 C 
HETATM    9  C20   D T1294      -3.394  -4.335 -12.594  1.00 28.62     0.061 A 
HETATM   10  C17   D T1294      -2.106  -3.980 -12.160  1.00 28.15     0.025 A 
HETATM   11  C21   D T1294      -3.276  -5.714 -12.995  1.00 24.63     0.279 A 
HETATM   12  C7    D T1294      -1.617  -2.735 -11.670  1.00 25.53     0.031 A 
HETATM   13  C16   D T1294      -1.244  -5.139 -12.305  1.00 25.62     0.085 A 
HETATM   14  C15   D T1294      -0.256  -2.661 -11.326  1.00 28.19     0.140 A 
HETATM   15  C5    D T1294       0.672  -3.805 -11.466  1.00 25.66     0.031 A 
HETATM   16  F29   D T1294       0.209  -1.587 -10.881  1.00 36.26    -0.204 F 
HETATM   17  C6    D T1294       0.219  -5.004 -11.897  1.00 26.69     0.021 A 
HETATM   18  N24   D T1294      -1.996  -6.237 -12.830  1.00 23.74    -0.208 NA
HETATM   19  O27   D T1294      -4.181  -6.367 -13.381  1.00 23.40    -0.265 OA
ENDBRANCH   5   8
BRANCH   6  20
HETATM   20  C22   D T1294      -9.308  -2.771 -14.187  1.00 51.05     0.280 C 
HETATM   21  N25   D T1294      -9.395  -1.441 -14.152  1.00 55.83    -0.209 NA
HETATM   22  O28   D T1294     -10.221  -3.438 -14.574  1.00 56.66    -0.265 OA
BRANCH  21  23
HETATM   23  C37   D T1294     -10.521  -0.711 -14.506  1.00 58.65     0.101 C 
BRANCH  23  24
HETATM   24  C38   D T1294     -10.443  -0.655 -16.022  1.00 62.48     0.153 C 
BRANCH  24  25
HETATM   25  N4    D T1294     -10.652   0.643 -16.772  1.00 67.11    -0.327 N 
BRANCH  25  26
HETATM   26  C39   D T1294     -11.244   0.252 -18.172  1.00 68.16     0.049 C 
HETATM   27  C42   D T1294     -11.704  -1.231 -18.588  1.00 67.52     0.051 C 
ENDBRANCH  25  26
BRANCH  25  28
HETATM   28  C40   D T1294      -9.550   1.850 -16.537  1.00 67.42     0.049 C 
HETATM   29  C41   D T1294      -8.372   2.304 -17.435  1.00 66.32     0.051 C 
ENDBRANCH  25  28
ENDBRANCH  24  25
ENDBRANCH  23  24
ENDBRANCH  21  23
ENDBRANCH   6  20
TORSDOF 7
