REMARK  7 active torsions:
REMARK  status: ('A' for Active; 'I' for Inactive)
REMARK    1  A    between atoms: C22_10  and  C19_16 
REMARK       I    between atoms: C22_10  and  N25_19 
REMARK    2  A    between atoms: C12_12  and  C18_15 
REMARK    3  A    between atoms: N25_19  and  C37_23 
REMARK    4  A    between atoms: C37_23  and  C38_24 
REMARK    5  A    between atoms: C38_24  and  N4_25 
REMARK    6  A    between atoms: N4_25  and  C39_26 
REMARK    7  A    between atoms: N4_25  and  C40_27 
ROOT
HETATM    1  C4    D T1294       5.652   2.051  12.087  1.00 32.29     0.052 C 
HETATM    2  C13   D T1294       5.635   4.686   9.391  1.00 33.66     0.002 A 
HETATM    3  C3    D T1294       5.967   5.819   8.408  1.00 26.27     0.033 C 
HETATM    4  C14   D T1294       5.424   3.036  10.993  1.00 36.57     0.064 A 
HETATM    5  C18   D T1294       4.316   4.135   9.453  1.00 31.41     0.077 A 
HETATM    6  C19   D T1294       6.330   4.023  10.407  1.00 39.79     0.069 A 
HETATM    7  N23   D T1294       4.274   3.164  10.373  1.00 32.77    -0.250 NA
ENDROOT
BRANCH   5   8
HETATM    8  C12   D T1294       3.109   4.654   8.597  1.00 29.19     0.024 C 
HETATM    9  C20   D T1294       1.783   4.212   8.629  1.00 28.62     0.061 A 
HETATM   10  C17   D T1294       0.768   4.799   7.856  1.00 28.15     0.025 A 
HETATM   11  C21   D T1294       1.118   3.172   9.373  1.00 24.63     0.279 A 
HETATM   12  C7    D T1294       0.831   5.890   6.941  1.00 25.53     0.031 A 
HETATM   13  C16   D T1294      -0.477   4.110   8.142  1.00 25.62     0.085 A 
HETATM   14  C15   D T1294      -0.365   6.284   6.316  1.00 28.19     0.140 A 
HETATM   15  C5    D T1294      -1.665   5.628   6.581  1.00 25.66     0.031 A 
HETATM   16  F29   D T1294      -0.348   7.233   5.499  1.00 36.26    -0.204 F 
HETATM   17  C6    D T1294      -1.738   4.569   7.419  1.00 26.69     0.021 A 
HETATM   18  N24   D T1294      -0.245   3.074   9.101  1.00 23.74    -0.208 NA
HETATM   19  O27   D T1294       1.671   2.431  10.106  1.00 23.40    -0.265 OA
ENDBRANCH   5   8
BRANCH   6  20
HETATM   20  C22   D T1294       7.682   4.192  10.900  1.00 51.05     0.280 C 
HETATM   21  N25   D T1294       8.267   5.324  10.506  1.00 55.83    -0.209 NA
HETATM   22  O28   D T1294       8.237   3.437  11.641  1.00 56.66    -0.265 OA
BRANCH  21  23
HETATM   23  C37   D T1294       9.549   5.719  10.863  1.00 58.65     0.101 C 
BRANCH  23  24
HETATM   24  C38   D T1294       9.364   6.310  12.250  1.00 62.48     0.153 C 
BRANCH  24  25
HETATM   25  N4    D T1294       9.979   7.640  12.627  1.00 67.11    -0.327 N 
BRANCH  25  26
HETATM   26  C39   D T1294      10.252   7.578  14.171  1.00 68.16     0.049 C 
HETATM   27  C42   D T1294      10.080   6.262  15.077  1.00 67.52     0.051 C 
ENDBRANCH  25  26
BRANCH  25  28
HETATM   28  C40   D T1294       9.439   8.985  11.835  1.00 67.42     0.049 C 
HETATM   29  C41   D T1294       8.445  10.077  12.303  1.00 66.32     0.051 C 
ENDBRANCH  25  28
ENDBRANCH  24  25
ENDBRANCH  23  24
ENDBRANCH  21  23
ENDBRANCH   6  20
TORSDOF 7
