REMARK  7 active torsions:
REMARK  status: ('A' for Active; 'I' for Inactive)
REMARK    1  A    between atoms: C22_10  and  C19_16 
REMARK       I    between atoms: C22_10  and  N25_19 
REMARK    2  A    between atoms: C12_12  and  C18_15 
REMARK    3  A    between atoms: N25_19  and  C37_23 
REMARK    4  A    between atoms: C37_23  and  C38_24 
REMARK    5  A    between atoms: C38_24  and  N4_25 
REMARK    6  A    between atoms: N4_25  and  C39_26 
REMARK    7  A    between atoms: N4_25  and  C40_27 
ROOT
HETATM    1  C4    D T1294      -6.575  -9.674 -13.250  1.00 32.29     0.052 C 
HETATM    2  C13   D T1294      -6.183  -6.055 -12.271  1.00 33.66     0.002 A 
HETATM    3  C3    D T1294      -6.372  -4.560 -11.971  1.00 26.27     0.033 C 
HETATM    4  C14   D T1294      -6.198  -8.297 -12.829  1.00 36.57     0.064 A 
HETATM    5  C18   D T1294      -4.894  -6.667 -12.155  1.00 31.41     0.077 A 
HETATM    6  C19   D T1294      -7.006  -7.080 -12.748  1.00 39.79     0.069 A 
HETATM    7  N23   D T1294      -4.983  -7.968 -12.458  1.00 32.77    -0.250 NA
ENDROOT
BRANCH   5   8
HETATM    8  C12   D T1294      -3.586  -5.888 -11.785  1.00 29.19     0.024 C 
HETATM    9  C20   D T1294      -2.284  -6.392 -11.700  1.00 28.62     0.061 A 
HETATM   10  C17   D T1294      -1.173  -5.580 -11.419  1.00 28.15     0.025 A 
HETATM   11  C21   D T1294      -1.735  -7.714 -11.868  1.00 24.63     0.279 A 
HETATM   12  C7    D T1294      -1.103  -4.177 -11.180  1.00 25.53     0.031 A 
HETATM   13  C16   D T1294       0.013  -6.417 -11.420  1.00 25.62     0.085 A 
HETATM   14  C15   D T1294       0.166  -3.620 -10.944  1.00 28.19     0.140 A 
HETATM   15  C5    D T1294       1.410  -4.423 -10.949  1.00 25.66     0.031 A 
HETATM   16  F29   D T1294       0.268  -2.392 -10.720  1.00 36.26    -0.204 F 
HETATM   17  C6    D T1294       1.360  -5.761 -11.139  1.00 26.69     0.021 A 
HETATM   18  N24   D T1294      -0.353  -7.771 -11.701  1.00 23.74    -0.208 NA
HETATM   19  O27   D T1294      -2.387  -8.675 -12.077  1.00 23.40    -0.265 OA
ENDBRANCH   5   8
BRANCH   6  20
HETATM   20  C22   D T1294      -8.400  -7.072 -13.144  1.00 51.05     0.280 C 
HETATM   21  N25   D T1294      -8.906  -5.852 -13.329  1.00 55.83    -0.209 NA
HETATM   22  O28   D T1294      -9.056  -8.049 -13.351  1.00 56.66    -0.265 OA
BRANCH  21  23
HETATM   23  C37   D T1294     -10.210  -5.588 -13.728  1.00 58.65     0.101 C 
BRANCH  23  24
HETATM   24  C38   D T1294     -10.167  -5.787 -15.233  1.00 62.48     0.153 C 
BRANCH  24  25
HETATM   25  N4    D T1294     -10.784  -4.779 -16.177  1.00 67.11    -0.327 N 
BRANCH  25  26
HETATM   26  C39   D T1294     -11.232  -5.583 -17.449  1.00 68.16     0.049 C 
HETATM   27  C42   D T1294     -11.199  -7.185 -17.575  1.00 67.52     0.051 C 
ENDBRANCH  25  26
BRANCH  25  28
HETATM   28  C40   D T1294     -10.123  -3.267 -16.224  1.00 67.42     0.049 C 
HETATM   29  C41   D T1294      -9.159  -2.639 -17.262  1.00 66.32     0.051 C 
ENDBRANCH  25  28
ENDBRANCH  24  25
ENDBRANCH  23  24
ENDBRANCH  21  23
ENDBRANCH   6  20
TORSDOF 7
