REMARK  7 active torsions:
REMARK  status: ('A' for Active; 'I' for Inactive)
REMARK    1  A    between atoms: C22_10  and  C19_16 
REMARK       I    between atoms: C22_10  and  N25_19 
REMARK    2  A    between atoms: C12_12  and  C18_15 
REMARK    3  A    between atoms: N25_19  and  C37_23 
REMARK    4  A    between atoms: C37_23  and  C38_24 
REMARK    5  A    between atoms: C38_24  and  N4_25 
REMARK    6  A    between atoms: N4_25  and  C39_26 
REMARK    7  A    between atoms: N4_25  and  C40_27 
ROOT
HETATM    1  C4    D T1294       9.421   9.268   5.379  1.00 32.29     0.052 C 
HETATM    2  C13   D T1294       8.792  11.517   2.420  1.00 33.66     0.002 A 
HETATM    3  C3    D T1294       8.894  12.492   1.237  1.00 26.27     0.033 C 
HETATM    4  C14   D T1294       8.950  10.106   4.242  1.00 36.57     0.064 A 
HETATM    5  C18   D T1294       7.520  11.034   2.863  1.00 31.41     0.077 A 
HETATM    6  C19   D T1294       9.701  10.967   3.329  1.00 39.79     0.069 A 
HETATM    7  N23   D T1294       7.688  10.198   3.894  1.00 32.77    -0.250 NA
ENDROOT
BRANCH   5   8
HETATM    8  C12   D T1294       6.151  11.485   2.247  1.00 29.19     0.024 C 
HETATM    9  C20   D T1294       4.865  11.106   2.647  1.00 28.62     0.061 A 
HETATM   10  C17   D T1294       3.702  11.627   2.056  1.00 28.15     0.025 A 
HETATM   11  C21   D T1294       4.385  10.204   3.663  1.00 24.63     0.279 A 
HETATM   12  C7    D T1294       3.557  12.581   1.009  1.00 25.53     0.031 A 
HETATM   13  C16   D T1294       2.553  11.034   2.718  1.00 25.62     0.085 A 
HETATM   14  C15   D T1294       2.251  12.938   0.630  1.00 28.19     0.140 A 
HETATM   15  C5    D T1294       1.045  12.378   1.279  1.00 25.66     0.031 A 
HETATM   16  F29   D T1294       2.083  13.767  -0.293  1.00 36.26    -0.204 F 
HETATM   17  C6    D T1294       1.161  11.446   2.251  1.00 26.69     0.021 A 
HETATM   18  N24   D T1294       2.995  10.128   3.733  1.00 23.74    -0.208 NA
HETATM   19  O27   D T1294       5.088   9.546   4.345  1.00 23.40    -0.265 OA
ENDBRANCH   5   8
BRANCH   6  20
HETATM   20  C22   D T1294      11.133  11.144   3.465  1.00 51.05     0.280 C 
HETATM   21  N25   D T1294      11.619  12.188   2.792  1.00 55.83    -0.209 NA
HETATM   22  O28   D T1294      11.841  10.472   4.155  1.00 56.66    -0.265 OA
BRANCH  21  23
HETATM   23  C37   D T1294      12.953  12.573   2.782  1.00 58.65     0.101 C 
BRANCH  23  24
HETATM   24  C38   D T1294      13.105  13.351   4.078  1.00 62.48     0.153 C 
BRANCH  24  25
HETATM   25  N4    D T1294      13.803  14.693   4.111  1.00 67.11    -0.327 N 
BRANCH  25  26
HETATM   26  C39   D T1294      14.433  14.828   5.542  1.00 68.16     0.049 C 
HETATM   27  C42   D T1294      14.467  13.653   6.639  1.00 67.52     0.051 C 
ENDBRANCH  25  26
BRANCH  25  28
HETATM   28  C40   D T1294      13.105  15.941   3.286  1.00 67.42     0.049 C 
HETATM   29  C41   D T1294      12.259  17.127   3.814  1.00 66.32     0.051 C 
ENDBRANCH  25  28
ENDBRANCH  24  25
ENDBRANCH  23  24
ENDBRANCH  21  23
ENDBRANCH   6  20
TORSDOF 7
