REMARK  5 active torsions:
REMARK  status: ('A' for Active; 'I' for Inactive)
REMARK    1  A    between atoms: C17_7  and  C21_10 
REMARK    2  A    between atoms: C21_10  and  O27_12 
REMARK    3  A    between atoms: O27_12  and  C15_13 
REMARK    4  A    between atoms: C14_19  and  C16_20 
REMARK    5  A    between atoms: N26_23  and  C20_25 
ROOT
HETATM    1  C15   D T9000       7.971   2.345  -7.483  1.00 25.10     0.125 A 
HETATM    2  C4    D T9000       8.986   2.925  -6.646  1.00 25.13     0.029 A 
HETATM    3  C19   D T9000       7.086   3.270  -8.128  1.00 24.76     0.173 A 
HETATM    4  N22   D T9000       6.070   2.770  -8.969  1.00 21.31    -0.078 NA
HETATM    5  N23   D T9000       7.159   4.619  -7.991  1.00 23.34    -0.228 NA
HETATM    6  C5    D T9000       8.132   5.137  -7.189  1.00 25.82     0.100 A 
HETATM    7  C14   D T9000       9.082   4.336  -6.482  1.00 24.84     0.024 A 
ENDROOT
BRANCH   1   8
HETATM    8  O27   D T9000       7.807   0.977  -7.727  1.00 27.54    -0.326 OA
BRANCH   8   9
HETATM    9  C21   D T9000       8.414  -0.117  -6.951  1.00 30.12     0.145 C 
HETATM   10  C1    D T9000       8.026  -1.413  -7.681  1.00 31.63     0.038 C 
BRANCH   9  11
HETATM   11  C17   D T9000       7.972  -0.187  -5.447  1.00 31.84     0.029 A 
HETATM   12  C13   D T9000       8.973  -0.074  -4.397  1.00 30.66     0.057 A 
HETATM   13 CL     D T9000      10.669   0.145  -4.715  1.00 30.46    -0.083 Cl
HETATM   14  C3    D T9000       8.585  -0.142  -3.029  1.00 30.46     0.013 A 
HETATM   15  C2    D T9000       7.228  -0.321  -2.660  1.00 31.74     0.031 A 
HETATM   16  C12   D T9000       6.219  -0.435  -3.652  1.00 32.80     0.150 A 
HETATM   17  F     D T9000       4.944  -0.606  -3.263  1.00 32.49    -0.203 F 
HETATM   18  C18   D T9000       6.568  -0.370  -5.046  1.00 33.48     0.084 A 
HETATM   19 CL2    D T9000       5.256  -0.517  -6.196  1.00 45.60    -0.080 Cl
ENDBRANCH   9  11
ENDBRANCH   8   9
ENDBRANCH   1   8
BRANCH   7  20
HETATM   20  C16   D T9000      10.158   4.941  -5.598  1.00 28.58     0.041 A 
HETATM   21  C6    D T9000      10.939   4.275  -4.550  1.00 32.07     0.122 A 
HETATM   22  N24   D T9000      11.753   5.128  -4.032  1.00 34.71    -0.168 NA
HETATM   23  N26   D T9000      11.608   6.274  -4.606  1.00 35.30    -0.252 N 
HETATM   24  C7    D T9000      10.620   6.251  -5.609  1.00 31.45     0.097 A 
BRANCH  23  25
HETATM   25  C20   D T9000      12.415   7.456  -4.221  1.00 38.85     0.110 C 
HETATM   26  C8    D T9000      11.551   8.461  -3.432  1.00 41.27     0.063 C 
HETATM   27  C10   D T9000      12.414   9.685  -3.043  1.00 43.11     0.292 C 
HETATM   28  N25   D T9000      13.057  10.323  -4.228  1.00 43.93     0.339 N 
HETATM   29  C11   D T9000      13.861   9.361  -5.034  1.00 43.41     0.292 C 
HETATM   30  C9    D T9000      13.031   8.132  -5.471  1.00 42.01     0.063 C 
ENDBRANCH  23  25
ENDBRANCH   7  20
TORSDOF 5
