REMARK  5 active torsions:
REMARK  status: ('A' for Active; 'I' for Inactive)
REMARK    1  A    between atoms: C17_7  and  C21_10 
REMARK    2  A    between atoms: C21_10  and  O27_12 
REMARK    3  A    between atoms: O27_12  and  C15_13 
REMARK    4  A    between atoms: C14_19  and  C16_20 
REMARK    5  A    between atoms: N26_23  and  C20_25 
ROOT
HETATM    1  C15   D T9000      -4.900  -3.383  10.499  1.00 25.10     0.125 A 
HETATM    2  C4    D T9000      -4.020  -4.455  10.875  1.00 25.13     0.029 A 
HETATM    3  C19   D T9000      -6.186  -3.772  10.000  1.00 24.76     0.173 A 
HETATM    4  N22   D T9000      -7.103  -2.771   9.619  1.00 21.31    -0.078 NA
HETATM    5  N23   D T9000      -6.597  -5.060   9.871  1.00 23.34    -0.228 NA
HETATM    6  C5    D T9000      -5.738  -6.053  10.235  1.00 25.82     0.100 A 
HETATM    7  C14   D T9000      -4.424  -5.814  10.747  1.00 24.84     0.024 A 
ENDROOT
BRANCH   1   8
HETATM    8  O27   D T9000      -4.607  -2.019  10.608  1.00 27.54    -0.326 OA
BRANCH   8   9
HETATM    9  C21   D T9000      -3.272  -1.437  10.818  1.00 30.12     0.145 C 
HETATM   10  C1    D T9000      -3.494   0.075  10.984  1.00 31.63     0.038 C 
BRANCH   9  11
HETATM   11  C17   D T9000      -2.241  -1.712   9.667  1.00 31.84     0.029 A 
HETATM   12  C13   D T9000      -1.006  -2.422   9.962  1.00 30.66     0.057 A 
HETATM   13 CL     D T9000      -0.596  -3.005  11.549  1.00 30.46    -0.083 Cl
HETATM   14  C3    D T9000      -0.060  -2.673   8.928  1.00 30.46     0.013 A 
HETATM   15  C2    D T9000      -0.296  -2.240   7.599  1.00 31.74     0.031 A 
HETATM   16  C12   D T9000      -1.488  -1.543   7.267  1.00 32.80     0.150 A 
HETATM   17  F     D T9000      -1.675  -1.147   5.997  1.00 32.49    -0.203 F 
HETATM   18  C18   D T9000      -2.470  -1.272   8.282  1.00 33.48     0.084 A 
HETATM   19 CL2    D T9000      -3.909  -0.411   7.779  1.00 45.60    -0.080 Cl
ENDBRANCH   9  11
ENDBRANCH   8   9
ENDBRANCH   1   8
BRANCH   7  20
HETATM   20  C16   D T9000      -3.490  -6.941  11.147  1.00 28.58     0.041 A 
HETATM   21  C6    D T9000      -2.035  -6.882  11.325  1.00 32.07     0.122 A 
HETATM   22  N24   D T9000      -1.610  -8.047  11.672  1.00 34.71    -0.168 NA
HETATM   23  N26   D T9000      -2.602  -8.869  11.746  1.00 35.30    -0.252 N 
HETATM   24  C7    D T9000      -3.830  -8.258  11.429  1.00 31.45     0.097 A 
BRANCH  23  25
HETATM   25  C20   D T9000      -2.421 -10.290  12.126  1.00 38.85     0.110 C 
HETATM   26  C8    D T9000      -2.587 -11.202  10.893  1.00 41.27     0.063 C 
HETATM   27  C10   D T9000      -2.395 -12.677  11.315  1.00 43.11     0.292 C 
HETATM   28  N25   D T9000      -3.315 -13.073  12.420  1.00 43.93     0.339 N 
HETATM   29  C11   D T9000      -3.206 -12.179  13.608  1.00 43.41     0.292 C 
HETATM   30  C9    D T9000      -3.420 -10.693  13.239  1.00 42.01     0.063 C 
ENDBRANCH  23  25
ENDBRANCH   7  20
TORSDOF 5
