REMARK  5 active torsions:
REMARK  status: ('A' for Active; 'I' for Inactive)
REMARK    1  A    between atoms: C17_7  and  C21_10 
REMARK    2  A    between atoms: C21_10  and  O27_12 
REMARK    3  A    between atoms: O27_12  and  C15_13 
REMARK    4  A    between atoms: C14_19  and  C16_20 
REMARK    5  A    between atoms: N26_23  and  C20_25 
ROOT
HETATM    1  C15   D T9000      -3.141  -7.042  -5.838  1.00 25.10     0.125 A 
HETATM    2  C4    D T9000      -4.155  -8.042  -6.030  1.00 25.13     0.029 A 
HETATM    3  C19   D T9000      -1.898  -7.504  -5.295  1.00 24.76     0.173 A 
HETATM    4  N22   D T9000      -0.856  -6.577  -5.086  1.00 21.31    -0.078 NA
HETATM    5  N23   D T9000      -1.641  -8.797  -4.967  1.00 23.34    -0.228 NA
HETATM    6  C5    D T9000      -2.624  -9.721  -5.161  1.00 25.82     0.100 A 
HETATM    7  C14   D T9000      -3.914  -9.404  -5.692  1.00 24.84     0.024 A 
ENDROOT
BRANCH   1   8
HETATM    8  O27   D T9000      -3.271  -5.686  -6.158  1.00 27.54    -0.326 OA
BRANCH   8   9
HETATM    9  C21   D T9000      -4.532  -4.984  -6.446  1.00 30.12     0.145 C 
HETATM   10  C1    D T9000      -4.134  -3.555  -6.851  1.00 31.63     0.038 C 
BRANCH   9  11
HETATM   11  C17   D T9000      -5.555  -4.946  -5.256  1.00 31.84     0.029 A 
HETATM   12  C13   D T9000      -6.875  -5.535  -5.423  1.00 30.66     0.057 A 
HETATM   13 CL     D T9000      -7.397  -6.303  -6.894  1.00 30.46    -0.083 Cl
HETATM   14  C3    D T9000      -7.814  -5.502  -4.353  1.00 30.46     0.013 A 
HETATM   15  C2    D T9000      -7.489  -4.899  -3.112  1.00 31.74     0.031 A 
HETATM   16  C12   D T9000      -6.212  -4.312  -2.906  1.00 32.80     0.150 A 
HETATM   17  F     D T9000      -5.943  -3.748  -1.716  1.00 32.49    -0.203 F 
HETATM   18  C18   D T9000      -5.235  -4.326  -3.960  1.00 33.48     0.084 A 
HETATM   19 CL2    D T9000      -3.688  -3.582  -3.613  1.00 45.60    -0.080 Cl
ENDBRANCH   9  11
ENDBRANCH   8   9
ENDBRANCH   1   8
BRANCH   7  20
HETATM   20  C16   D T9000      -4.988 -10.456  -5.900  1.00 28.58     0.041 A 
HETATM   21  C6    D T9000      -6.430 -10.246  -6.071  1.00 32.07     0.122 A 
HETATM   22  N24   D T9000      -7.002 -11.389  -6.225  1.00 34.71    -0.168 NA
HETATM   23  N26   D T9000      -6.119 -12.329  -6.177  1.00 35.30    -0.252 N 
HETATM   24  C7    D T9000      -4.818 -11.832  -5.972  1.00 31.45     0.097 A 
BRANCH  23  25
HETATM   25  C20   D T9000      -6.481 -13.758  -6.325  1.00 38.85     0.110 C 
HETATM   26  C8    D T9000      -6.390 -14.479  -4.965  1.00 41.27     0.063 C 
HETATM   27  C10   D T9000      -6.771 -15.967  -5.145  1.00 43.11     0.292 C 
HETATM   28  N25   D T9000      -5.938 -16.642  -6.183  1.00 43.93     0.339 N 
HETATM   29  C11   D T9000      -5.972 -15.938  -7.497  1.00 43.41     0.292 C 
HETATM   30  C9    D T9000      -5.570 -14.451  -7.370  1.00 42.01     0.063 C 
ENDBRANCH  23  25
ENDBRANCH   7  20
TORSDOF 5
