REMARK  5 active torsions:
REMARK  status: ('A' for Active; 'I' for Inactive)
REMARK    1  A    between atoms: C17_7  and  C21_10 
REMARK    2  A    between atoms: C21_10  and  O27_12 
REMARK    3  A    between atoms: O27_12  and  C15_13 
REMARK    4  A    between atoms: C14_19  and  C16_20 
REMARK    5  A    between atoms: N26_23  and  C20_25 
ROOT
HETATM    1  C15   D T9000      -9.390   2.523  -6.606  1.00 25.10     0.125 A 
HETATM    2  C4    D T9000     -10.609   1.824  -6.904  1.00 25.13     0.029 A 
HETATM    3  C19   D T9000      -8.176   1.840  -6.948  1.00 24.76     0.173 A 
HETATM    4  N22   D T9000      -6.941   2.471  -6.690  1.00 21.31    -0.078 NA
HETATM    5  N23   D T9000      -8.127   0.610  -7.520  1.00 23.34    -0.228 NA
HETATM    6  C5    D T9000      -9.302  -0.026  -7.789  1.00 25.82     0.100 A 
HETATM    7  C14   D T9000     -10.587   0.531  -7.500  1.00 24.84     0.024 A 
ENDROOT
BRANCH   1   8
HETATM    8  O27   D T9000      -9.305   3.801  -6.043  1.00 27.54    -0.326 OA
BRANCH   8   9
HETATM    9  C21   D T9000     -10.399   4.523  -5.373  1.00 30.12     0.145 C 
HETATM   10  C1    D T9000      -9.840   5.916  -5.040  1.00 31.63     0.038 C 
BRANCH   9  11
HETATM   11  C17   D T9000     -10.951   3.834  -4.076  1.00 31.84     0.029 A 
HETATM   12  C13   D T9000     -12.352   3.447  -4.009  1.00 30.66     0.057 A 
HETATM   13 CL     D T9000     -13.477   3.702  -5.311  1.00 30.46    -0.083 Cl
HETATM   14  C3    D T9000     -12.867   2.825  -2.835  1.00 30.46     0.013 A 
HETATM   15  C2    D T9000     -12.035   2.573  -1.715  1.00 31.74     0.031 A 
HETATM   16  C12   D T9000     -10.662   2.934  -1.739  1.00 32.80     0.150 A 
HETATM   17  F     D T9000      -9.906   2.680  -0.657  1.00 32.49    -0.203 F 
HETATM   18  C18   D T9000     -10.103   3.562  -2.906  1.00 33.48     0.084 A 
HETATM   19 CL2    D T9000      -8.401   3.968  -2.844  1.00 45.60    -0.080 Cl
ENDBRANCH   9  11
ENDBRANCH   8   9
ENDBRANCH   1   8
BRANCH   7  20
HETATM   20  C16   D T9000     -11.880  -0.200  -7.813  1.00 28.58     0.041 A 
HETATM   21  C6    D T9000     -13.213   0.056  -7.260  1.00 32.07     0.122 A 
HETATM   22  N24   D T9000     -14.048  -0.776  -7.780  1.00 34.71    -0.168 NA
HETATM   23  N26   D T9000     -13.432  -1.550  -8.609  1.00 35.30    -0.252 N 
HETATM   24  C7    D T9000     -12.057  -1.260  -8.693  1.00 31.45     0.097 A 
BRANCH  23  25
HETATM   25  C20   D T9000     -14.135  -2.613  -9.366  1.00 38.85     0.110 C 
HETATM   26  C8    D T9000     -13.779  -4.002  -8.797  1.00 41.27     0.063 C 
HETATM   27  C10   D T9000     -14.523  -5.092  -9.602  1.00 43.11     0.292 C 
HETATM   28  N25   D T9000     -14.240  -5.007 -11.065  1.00 43.93     0.339 N 
HETATM   29  C11   D T9000     -14.533  -3.659 -11.630  1.00 43.41     0.292 C 
HETATM   30  C9    D T9000     -13.787  -2.536 -10.873  1.00 42.01     0.063 C 
ENDBRANCH  23  25
ENDBRANCH   7  20
TORSDOF 5
