REMARK  5 active torsions:
REMARK  status: ('A' for Active; 'I' for Inactive)
REMARK    1  A    between atoms: C17_7  and  C21_10 
REMARK    2  A    between atoms: C21_10  and  O27_12 
REMARK    3  A    between atoms: O27_12  and  C15_13 
REMARK    4  A    between atoms: C14_19  and  C16_20 
REMARK    5  A    between atoms: N26_23  and  C20_25 
ROOT
HETATM    1  C15   D T9000      -4.380   1.220  13.772  1.00 25.10     0.125 A 
HETATM    2  C4    D T9000      -3.412   0.298  14.298  1.00 25.13     0.029 A 
HETATM    3  C19   D T9000      -5.711   0.711  13.617  1.00 24.76     0.173 A 
HETATM    4  N22   D T9000      -6.714   1.564  13.111  1.00 21.31    -0.078 NA
HETATM    5  N23   D T9000      -6.086  -0.555  13.933  1.00 23.34    -0.228 NA
HETATM    6  C5    D T9000      -5.143  -1.405  14.429  1.00 25.82     0.100 A 
HETATM    7  C14   D T9000      -3.777  -1.036  14.635  1.00 24.84     0.024 A 
ENDROOT
BRANCH   1   8
HETATM    8  O27   D T9000      -4.128   2.554  13.433  1.00 27.54    -0.326 OA
BRANCH   8   9
HETATM    9  C21   D T9000      -2.799   3.162  13.252  1.00 30.12     0.145 C 
HETATM   10  C1    D T9000      -3.053   4.658  13.005  1.00 31.63     0.038 C 
BRANCH   9  11
HETATM   11  C17   D T9000      -1.947   2.554  12.082  1.00 31.84     0.029 A 
HETATM   12  C13   D T9000      -0.654   1.953  12.372  1.00 30.66     0.057 A 
HETATM   13 CL     D T9000       0.016   1.857  13.973  1.00 30.46    -0.083 Cl
HETATM   14  C3    D T9000       0.131   1.403  11.318  1.00 30.46     0.013 A 
HETATM   15  C2    D T9000      -0.323   1.431   9.975  1.00 31.74     0.031 A 
HETATM   16  C12   D T9000      -1.578   2.009   9.649  1.00 32.80     0.150 A 
HETATM   17  F     D T9000      -1.973   2.018   8.364  1.00 32.49    -0.203 F 
HETATM   18  C18   D T9000      -2.403   2.572  10.683  1.00 33.48     0.084 A 
HETATM   19 CL2    D T9000      -3.935   3.259  10.186  1.00 45.60    -0.080 Cl
ENDBRANCH   9  11
ENDBRANCH   8   9
ENDBRANCH   1   8
BRANCH   7  20
HETATM   20  C16   D T9000      -2.749  -2.004  15.192  1.00 28.58     0.041 A 
HETATM   21  C6    D T9000      -1.288  -1.906  15.113  1.00 32.07     0.122 A 
HETATM   22  N24   D T9000      -0.769  -2.922  15.711  1.00 34.71    -0.168 NA
HETATM   23  N26   D T9000      -1.704  -3.679  16.175  1.00 35.30    -0.252 N 
HETATM   24  C7    D T9000      -2.990  -3.179  15.893  1.00 31.45     0.097 A 
BRANCH  23  25
HETATM   25  C20   D T9000      -1.412  -4.928  16.918  1.00 38.85     0.110 C 
HETATM   26  C8    D T9000      -1.729  -6.159  16.044  1.00 41.27     0.063 C 
HETATM   27  C10   D T9000      -1.417  -7.448  16.839  1.00 43.11     0.292 C 
HETATM   28  N25   D T9000      -2.140  -7.497  18.143  1.00 43.93     0.339 N 
HETATM   29  C11   D T9000      -1.886  -6.295  18.988  1.00 43.41     0.292 C 
HETATM   30  C9    D T9000      -2.212  -4.981  18.243  1.00 42.01     0.063 C 
ENDBRANCH  23  25
ENDBRANCH   7  20
TORSDOF 5
