REMARK  2 active torsions:
REMARK  status: ('A' for Active; 'I' for Inactive)
REMARK    1  A    between atoms: C5_4  and  O7_13 
REMARK    2  A    between atoms: C8_10  and  O7_13 
ROOT
HETATM    1  O7    D T 802       6.217   2.124  -6.898  1.00 48.82    -0.304 OA
ENDROOT
BRANCH   1   2
HETATM    2  C5    D T 802       6.100   1.966  -8.257  1.00 49.19     0.125 A 
HETATM    3  C6    D T 802       5.956   0.688  -8.790  1.00 48.70     0.154 A 
HETATM    4  C1    D T 802       5.836   0.512 -10.158  1.00 48.88     0.041 A 
HETATM    5  O17   D T 802       5.927  -0.412  -7.993  1.00 50.47    -0.188 OA
HETATM    6  C2    D T 802       5.863   1.613 -10.999  1.00 48.41     0.060 A 
HETATM    7  C3    D T 802       6.021   2.906 -10.483  1.00 48.74     0.014 A 
HETATM    8 CL14   D T 802       5.696   1.310 -12.753  1.00 49.19    -0.082 Cl
HETATM    9  C4    D T 802       6.141   3.083  -9.104  1.00 49.20     0.028 A 
ENDBRANCH   1   2
BRANCH   1  10
HETATM   10  C8    D T 802       7.464   2.170  -6.317  1.00 49.10     0.111 A 
HETATM   11  C9    D T 802       7.617   2.597  -4.996  1.00 48.28     0.081 A 
HETATM   12  C10   D T 802       8.867   2.651  -4.415  1.00 46.88     0.025 A 
HETATM   13 CL16   D T 802       6.221   3.100  -4.000  1.00 48.70    -0.080 Cl
HETATM   14  C11   D T 802       9.953   2.275  -5.178  1.00 46.87     0.059 A 
HETATM   15  C12   D T 802       9.829   1.844  -6.493  1.00 47.33     0.013 A 
HETATM   16 CL15   D T 802      11.567   2.348  -4.445  1.00 47.93    -0.082 Cl
HETATM   17  C13   D T 802       8.579   1.789  -7.072  1.00 47.70     0.026 A 
ENDBRANCH   1  10
TORSDOF 2
