REMARK  2 active torsions:
REMARK  status: ('A' for Active; 'I' for Inactive)
REMARK    1  A    between atoms: C5_4  and  O7_13 
REMARK    2  A    between atoms: C8_10  and  O7_13 
ROOT
HETATM    1  O7    D T 802       7.668   1.724  -6.011  1.00 48.82    -0.304 OA
ENDROOT
BRANCH   1   2
HETATM    2  C5    D T 802       7.693   1.698  -7.383  1.00 49.19     0.125 A 
HETATM    3  C6    D T 802       7.402   0.513  -8.054  1.00 48.70     0.154 A 
HETATM    4  C1    D T 802       7.422   0.471  -9.437  1.00 48.88     0.041 A 
HETATM    5  O17   D T 802       7.091  -0.624  -7.378  1.00 50.47    -0.188 OA
HETATM    6  C2    D T 802       7.736   1.614 -10.157  1.00 48.41     0.060 A 
HETATM    7  C3    D T 802       8.046   2.812  -9.500  1.00 48.74     0.014 A 
HETATM    8 CL14   D T 802       7.736   1.486 -11.940  1.00 49.19    -0.082 Cl
HETATM    9  C4    D T 802       8.024   2.854  -8.105  1.00 49.20     0.028 A 
ENDBRANCH   1   2
BRANCH   1  10
HETATM   10  C8    D T 802       8.824   1.499  -5.299  1.00 49.10     0.111 A 
HETATM   11  C9    D T 802       8.885   1.785  -3.933  1.00 48.28     0.081 A 
HETATM   12  C10   D T 802      10.046   1.568  -3.219  1.00 46.88     0.025 A 
HETATM   13 CL16   D T 802       7.482   2.448  -3.046  1.00 48.70    -0.080 Cl
HETATM   14  C11   D T 802      11.138   1.066  -3.897  1.00 46.87     0.059 A 
HETATM   15  C12   D T 802      11.105   0.771  -5.254  1.00 47.33     0.013 A 
HETATM   16 CL15   D T 802      12.639   0.792  -2.992  1.00 47.93    -0.082 Cl
HETATM   17  C13   D T 802       9.943   0.987  -5.965  1.00 47.70     0.026 A 
ENDBRANCH   1  10
TORSDOF 2
