REMARK  2 active torsions:
REMARK  status: ('A' for Active; 'I' for Inactive)
REMARK    1  A    between atoms: C5_4  and  O7_13 
REMARK    2  A    between atoms: C8_10  and  O7_13 
ROOT
HETATM    1  O7    D T 802       7.421   1.459  -6.243  1.00 48.82    -0.304 OA
ENDROOT
BRANCH   1   2
HETATM    2  C5    D T 802       7.439   1.320  -7.609  1.00 49.19     0.125 A 
HETATM    3  C6    D T 802       7.204   0.070  -8.176  1.00 48.70     0.154 A 
HETATM    4  C1    D T 802       7.218  -0.085  -9.551  1.00 48.88     0.041 A 
HETATM    5  O17   D T 802       6.953  -1.021  -7.405  1.00 50.47    -0.188 OA
HETATM    6  C2    D T 802       7.471   1.008 -10.366  1.00 48.41     0.060 A 
HETATM    7  C3    D T 802       7.724   2.270  -9.813  1.00 48.74     0.014 A 
HETATM    8 CL14   D T 802       7.468   0.733 -12.132  1.00 49.19    -0.082 Cl
HETATM    9  C4    D T 802       7.708   2.427  -8.427  1.00 49.20     0.028 A 
ENDBRANCH   1   2
BRANCH   1  10
HETATM   10  C8    D T 802       8.590   1.351  -5.526  1.00 49.10     0.111 A 
HETATM   11  C9    D T 802       8.644   1.753  -4.189  1.00 48.28     0.081 A 
HETATM   12  C10   D T 802       9.818   1.653  -3.471  1.00 46.88     0.025 A 
HETATM   13 CL16   D T 802       7.215   2.417  -3.347  1.00 48.70    -0.080 Cl
HETATM   14  C11   D T 802      10.930   1.151  -4.115  1.00 46.87     0.059 A 
HETATM   15  C12   D T 802      10.904   0.743  -5.443  1.00 47.33     0.013 A 
HETATM   16 CL15   D T 802      12.448   1.026  -3.206  1.00 47.93    -0.082 Cl
HETATM   17  C13   D T 802       9.729   0.841  -6.159  1.00 47.70     0.026 A 
ENDBRANCH   1  10
TORSDOF 2
