REMARK  2 active torsions:
REMARK  status: ('A' for Active; 'I' for Inactive)
REMARK    1  A    between atoms: C5_4  and  O7_13 
REMARK    2  A    between atoms: C8_10  and  O7_13 
ROOT
HETATM    1  O7    D T 802       7.759   1.924  -5.798  1.00 33.38    -0.304 OA
ENDROOT
BRANCH   1   2
HETATM    2  C5    D T 802       7.739   1.861  -7.152  1.00 33.90     0.125 A 
HETATM    3  C6    D T 802       7.470   0.550  -7.788  1.00 34.14     0.154 A 
HETATM    4  C1    D T 802       7.453   0.483  -9.171  1.00 33.42     0.041 A 
HETATM    5  O17   D T 802       7.256  -0.556  -7.028  1.00 31.93    -0.188 OA
HETATM    6  C2    D T 802       7.714   1.641  -9.904  1.00 33.75     0.060 A 
HETATM    7  C3    D T 802       7.988   2.870  -9.303  1.00 34.09     0.014 A 
HETATM    8 CL14   D T 802       7.669   1.502 -11.679  1.00 31.80    -0.082 Cl
HETATM    9  C4    D T 802       8.001   2.995  -7.917  1.00 33.84     0.028 A 
ENDBRANCH   1   2
BRANCH   1  10
HETATM   10  C8    D T 802       8.941   1.655  -5.164  1.00 32.79     0.111 A 
HETATM   11  C9    D T 802       8.980   1.915  -3.718  1.00 33.58     0.081 A 
HETATM   12  C10   D T 802      10.137   1.676  -3.006  1.00 33.67     0.025 A 
HETATM   13 CL16   D T 802       7.526   2.568  -2.928  1.00 34.24    -0.080 Cl
HETATM   14  C11   D T 802      11.221   1.190  -3.734  1.00 34.91     0.059 A 
HETATM   15  C12   D T 802      11.215   0.924  -5.104  1.00 32.31     0.013 A 
HETATM   16 CL15   D T 802      12.692   0.891  -2.810  1.00 34.34    -0.082 Cl
HETATM   17  C13   D T 802      10.061   1.159  -5.833  1.00 32.72     0.026 A 
ENDBRANCH   1  10
TORSDOF 2
