REMARK  2 active torsions:
REMARK  status: ('A' for Active; 'I' for Inactive)
REMARK    1  A    between atoms: C5_4  and  O7_13 
REMARK    2  A    between atoms: C8_10  and  O7_13 
ROOT
HETATM    1  O7    D T 802       6.293   2.357  -6.716  1.00 33.38    -0.304 OA
ENDROOT
BRANCH   1   2
HETATM    2  C5    D T 802       6.140   2.157  -8.047  1.00 33.90     0.125 A 
HETATM    3  C6    D T 802       6.044   0.762  -8.539  1.00 34.14     0.154 A 
HETATM    4  C1    D T 802       5.893   0.556  -9.900  1.00 33.42     0.041 A 
HETATM    5  O17   D T 802       6.114  -0.282  -7.672  1.00 31.93    -0.188 OA
HETATM    6  C2    D T 802       5.863   1.662 -10.749  1.00 33.75     0.060 A 
HETATM    7  C3    D T 802       5.974   2.974 -10.286  1.00 34.09     0.014 A 
HETATM    8 CL14   D T 802       5.655   1.341 -12.489  1.00 31.80    -0.082 Cl
HETATM    9  C4    D T 802       6.112   3.236  -8.927  1.00 33.84     0.028 A 
ENDBRANCH   1   2
BRANCH   1  10
HETATM   10  C8    D T 802       7.565   2.356  -6.211  1.00 32.79     0.111 A 
HETATM   11  C9    D T 802       7.710   2.762  -4.806  1.00 33.58     0.081 A 
HETATM   12  C10   D T 802       8.960   2.794  -4.224  1.00 33.67     0.025 A 
HETATM   13 CL16   D T 802       6.255   3.236  -3.899  1.00 34.24    -0.080 Cl
HETATM   14  C11   D T 802      10.030   2.426  -5.038  1.00 34.91     0.059 A 
HETATM   15  C12   D T 802       9.926   2.028  -6.371  1.00 32.31     0.013 A 
HETATM   16 CL15   D T 802      11.620   2.474  -4.279  1.00 34.34    -0.082 Cl
HETATM   17  C13   D T 802       8.678   1.991  -6.970  1.00 32.72     0.026 A 
ENDBRANCH   1  10
TORSDOF 2
