REMARK  2 active torsions:
REMARK  status: ('A' for Active; 'I' for Inactive)
REMARK    1  A    between atoms: C5_4  and  O7_13 
REMARK    2  A    between atoms: C8_10  and  O7_13 
ROOT
HETATM    1  O7    D T 802       7.502   1.692  -6.046  1.00 33.38    -0.304 OA
ENDROOT
BRANCH   1   2
HETATM    2  C5    D T 802       7.477   1.516  -7.390  1.00 33.90     0.125 A 
HETATM    3  C6    D T 802       7.271   0.145  -7.913  1.00 34.14     0.154 A 
HETATM    4  C1    D T 802       7.251  -0.037  -9.285  1.00 33.42     0.041 A 
HETATM    5  O17   D T 802       7.118  -0.903  -7.062  1.00 31.93    -0.188 OA
HETATM    6  C2    D T 802       7.449   1.068 -10.113  1.00 33.75     0.060 A 
HETATM    7  C3    D T 802       7.663   2.355  -9.619  1.00 34.09     0.014 A 
HETATM    8 CL14   D T 802       7.401   0.781 -11.871  1.00 31.80    -0.082 Cl
HETATM    9  C4    D T 802       7.677   2.594  -8.248  1.00 33.84     0.028 A 
ENDBRANCH   1   2
BRANCH   1  10
HETATM   10  C8    D T 802       8.699   1.535  -5.403  1.00 32.79     0.111 A 
HETATM   11  C9    D T 802       8.733   1.916  -3.983  1.00 33.58     0.081 A 
HETATM   12  C10   D T 802       9.905   1.794  -3.266  1.00 33.67     0.025 A 
HETATM   13 CL16   D T 802       7.252   2.559  -3.236  1.00 34.24    -0.080 Cl
HETATM   14  C11   D T 802      11.007   1.304  -3.962  1.00 34.91     0.059 A 
HETATM   15  C12   D T 802      11.007   0.926  -5.305  1.00 32.31     0.013 A 
HETATM   16 CL15   D T 802      12.496   1.157  -3.030  1.00 34.34    -0.082 Cl
HETATM   17  C13   D T 802       9.839   1.042  -6.040  1.00 32.72     0.026 A 
ENDBRANCH   1  10
TORSDOF 2
