REMARK  4 active torsions:
REMARK  status: ('A' for Active; 'I' for Inactive)
REMARK    1  A    between atoms: C1_1  and  N3_7 
REMARK    2  A    between atoms: N3_7  and  C5_8 
REMARK    3  A    between atoms: C8_11  and  N7_34 
REMARK    4  A    between atoms: N5_16  and  C19_26 
ROOT
HETATM    1  C1    D T   1       3.949   4.166  -9.689  1.00  8.98     0.751 A 
HETATM    2  N1    D T   1       5.150   3.959  -9.054  1.00  8.90    -0.041 NA
HETATM    3  C2    D T   1       5.609   2.744  -8.696  1.00  9.32     0.188 A 
HETATM    4  C3    D T   1       4.722   1.599  -9.038  1.00  8.55     0.112 A 
HETATM    5  C4    D T   1       3.440   1.795  -9.729  1.00 10.16     0.126 A 
HETATM    6  N2    D T   1       3.115   3.099 -10.020  1.00  8.40    -0.057 NA
HETATM    7  N4    D T   1       6.879   2.610  -7.973  1.00 10.02    -0.124 N 
HETATM    8  C11   D T   1       7.390   1.399  -7.551  1.00  8.08     0.723 A 
HETATM    9  N5    D T   1       6.608   0.253  -7.854  1.00  9.52    -0.107 N 
HETATM   10  C12   D T   1       5.312   0.387  -8.562  1.00  8.74     0.283 A 
HETATM   11  C13   D T   1       7.868   3.542  -7.503  1.00  8.60     0.093 A 
HETATM   12  C14   D T   1       8.954   2.857  -6.781  1.00  8.87     0.094 A 
HETATM   13  N6    D T   1       8.624   1.524  -6.836  1.00  8.74    -0.065 NA
HETATM   14  C15   D T   1       7.993   5.015  -7.580  1.00  8.67    -0.007 A 
HETATM   15  C16   D T   1       9.106   5.779  -6.996  1.00 10.01     0.028 A 
HETATM   16  C17   D T   1      10.132   5.032  -6.297  1.00  8.30     0.011 A 
HETATM   17  C18   D T   1      10.084   3.593  -6.174  1.00  8.80     0.048 A 
HETATM   18  O1    D T   1       4.559  -0.565  -8.729  1.00  9.45    -0.266 OA
ENDROOT
BRANCH   1  19
HETATM   19  N3    D T   1       3.566   5.479  -9.921  1.00 10.50    -0.059 NA
BRANCH  19  20
HETATM   20  C5    D T   1       4.121   6.708  -9.480  1.00 13.72     0.096 A 
HETATM   21  C6    D T   1       5.023   6.731  -8.311  1.00 16.17     0.021 A 
HETATM   22  C7    D T   1       5.688   7.912  -7.911  1.00 18.76     0.014 A 
HETATM   23  C8    D T   1       5.402   9.050  -8.730  1.00 19.63     0.038 A 
HETATM   24  C9    D T   1       4.481   9.085  -9.903  1.00 18.58     0.071 A 
HETATM   25  C10   D T   1       3.822   7.872 -10.281  1.00 14.74    -0.000 A 
BRANCH  23  26
HETATM   26  N7    D T   1       6.170  10.105  -8.304  1.00 23.52    -0.347 N 
HETATM   27  C27   D T   1       5.445  11.317  -8.016  1.00 25.21     0.137 C 
HETATM   28  C28   D T   1       6.181  12.521  -8.590  1.00 27.80     0.274 C 
HETATM   29  N8    D T   1       7.592  12.388  -8.189  1.00 28.55     0.143 N 
HETATM   30  C29   D T   1       8.259  11.259  -8.855  1.00 28.15     0.274 C 
HETATM   31  C31   D T   1       8.220  13.529  -8.838  1.00 29.41     0.286 C 
HETATM   32  C30   D T   1       7.675  10.065  -8.106  1.00 25.70     0.137 C 
ENDBRANCH  23  26
ENDBRANCH  19  20
ENDBRANCH   1  19
BRANCH   9  33
HETATM   33  C19   D T   1       7.104  -0.991  -7.571  1.00  9.46     0.076 A 
HETATM   34  C20   D T   1       7.772  -1.774  -8.610  1.00  9.11    -0.005 A 
HETATM   35  C21   D T   1       8.286  -3.100  -8.294  1.00  9.01    -0.003 A 
HETATM   36  C26   D T   1       7.892  -1.183 -10.001  1.00  8.02     0.033 C 
HETATM   37  C22   D T   1       8.171  -3.680  -6.993  1.00  9.80    -0.001 A 
HETATM   38  C23   D T   1       7.518  -2.879  -6.025  1.00 10.49    -0.003 A 
HETATM   39  C24   D T   1       6.974  -1.559  -6.254  1.00 10.01    -0.005 A 
HETATM   40  C25   D T   1       6.252  -0.846  -5.130  1.00 10.21     0.033 C 
ENDBRANCH   9  33
TORSDOF 4
