REMARK  4 active torsions:
REMARK  status: ('A' for Active; 'I' for Inactive)
REMARK    1  A    between atoms: C1_1  and  N3_7 
REMARK    2  A    between atoms: N3_7  and  C5_8 
REMARK    3  A    between atoms: C8_11  and  N7_34 
REMARK    4  A    between atoms: N5_16  and  C19_26 
ROOT
HETATM    1  C1    D T   1       2.276   3.045   9.637  1.00  8.98     0.751 A 
HETATM    2  N1    D T   1       2.383   4.354   9.234  1.00  8.90    -0.041 NA
HETATM    3  C2    D T   1       1.426   5.009   8.548  1.00  9.32     0.188 A 
HETATM    4  C3    D T   1       0.204   4.216   8.241  1.00  8.55     0.112 A 
HETATM    5  C4    D T   1       0.062   2.819   8.673  1.00 10.16     0.126 A 
HETATM    6  N2    D T   1       1.132   2.297   9.361  1.00  8.40    -0.057 NA
HETATM    7  N4    D T   1       1.637   6.392   8.107  1.00 10.02    -0.124 N 
HETATM    8  C11   D T   1       0.711   7.108   7.376  1.00  8.08     0.723 A 
HETATM    9  N5    D T   1      -0.492   6.424   7.056  1.00  9.52    -0.107 N 
HETATM   10  C12   D T   1      -0.699   5.019   7.477  1.00  8.74     0.283 A 
HETATM   11  C13   D T   1       2.718   7.332   8.239  1.00  8.60     0.093 A 
HETATM   12  C14   D T   1       2.416   8.600   7.554  1.00  8.87     0.094 A 
HETATM   13  N6    D T   1       1.156   8.425   7.033  1.00  8.74    -0.065 NA
HETATM   14  C15   D T   1       4.045   7.267   8.890  1.00  8.67    -0.007 A 
HETATM   15  C16   D T   1       5.022   8.368   8.881  1.00 10.01     0.028 A 
HETATM   16  C17   D T   1       4.651   9.582   8.181  1.00  8.30     0.011 A 
HETATM   17  C18   D T   1       3.375   9.725   7.517  1.00  8.80     0.048 A 
HETATM   18  O1    D T   1      -1.669   4.365   7.113  1.00  9.45    -0.266 OA
ENDROOT
BRANCH   1  19
HETATM   19  N3    D T   1       3.375   2.475  10.262  1.00 10.50    -0.059 NA
BRANCH  19  20
HETATM   20  C5    D T   1       4.700   2.952  10.441  1.00 13.72     0.096 A 
HETATM   21  C6    D T   1       5.217   4.035   9.582  1.00 16.17     0.021 A 
HETATM   22  C7    D T   1       6.485   4.617   9.804  1.00 18.76     0.014 A 
HETATM   23  C8    D T   1       7.198   4.059  10.913  1.00 19.63     0.038 A 
HETATM   24  C9    D T   1       6.732   2.950  11.795  1.00 18.58     0.071 A 
HETATM   25  C10   D T   1       5.443   2.381  11.542  1.00 14.74    -0.000 A 
BRANCH  23  26
HETATM   26  N7    D T   1       8.365   4.761  11.085  1.00 23.52    -0.347 N 
HETATM   27  C27   D T   1       9.563   3.961  11.132  1.00 25.21     0.137 C 
HETATM   28  C28   D T   1      10.473   4.438  12.256  1.00 27.80     0.274 C 
HETATM   29  N8    D T   1      10.565   5.903  12.137  1.00 28.55     0.143 N 
HETATM   30  C29   D T   1       9.292   6.571  12.450  1.00 28.15     0.274 C 
HETATM   31  C31   D T   1      11.383   6.270  13.282  1.00 29.41     0.286 C 
HETATM   32  C30   D T   1       8.466   6.272  11.202  1.00 25.70     0.137 C 
ENDBRANCH  23  26
ENDBRANCH  19  20
ENDBRANCH   1  19
BRANCH   9  33
HETATM   33  C19   D T   1      -1.505   7.106   6.434  1.00  9.46     0.076 A 
HETATM   34  C20   D T   1      -2.605   7.668   7.215  1.00  9.11    -0.005 A 
HETATM   35  C21   D T   1      -3.678   8.382   6.536  1.00  9.01    -0.003 A 
HETATM   36  C26   D T   1      -2.603   7.473   8.719  1.00  8.02     0.033 C 
HETATM   37  C22   D T   1      -3.705   8.565   5.119  1.00  9.80    -0.001 A 
HETATM   38  C23   D T   1      -2.615   8.003   4.412  1.00 10.49    -0.003 A 
HETATM   39  C24   D T   1      -1.514   7.275   5.004  1.00 10.01    -0.005 A 
HETATM   40  C25   D T   1      -0.446   6.683   4.109  1.00 10.21     0.033 C 
ENDBRANCH   9  33
TORSDOF 4
