REMARK  4 active torsions:
REMARK  status: ('A' for Active; 'I' for Inactive)
REMARK    1  A    between atoms: C1_1  and  N3_7 
REMARK    2  A    between atoms: N3_7  and  C5_8 
REMARK    3  A    between atoms: C8_11  and  N7_34 
REMARK    4  A    between atoms: N5_16  and  C19_26 
ROOT
HETATM    1  C1    D T   1       5.251  10.059   3.803  1.00  8.98     0.751 A 
HETATM    2  N1    D T   1       5.280  11.299   3.213  1.00  8.90    -0.041 NA
HETATM    3  C2    D T   1       4.205  11.890   2.655  1.00  9.32     0.188 A 
HETATM    4  C3    D T   1       2.942  11.105   2.715  1.00  8.55     0.112 A 
HETATM    5  C4    D T   1       2.884   9.783   3.353  1.00 10.16     0.126 A 
HETATM    6  N2    D T   1       4.071   9.320   3.871  1.00  8.40    -0.057 NA
HETATM    7  N4    D T   1       4.329  13.195   1.997  1.00 10.02    -0.124 N 
HETATM    8  C11   D T   1       3.275  13.840   1.380  1.00  8.08     0.723 A 
HETATM    9  N5    D T   1       2.028  13.161   1.409  1.00  9.52    -0.107 N 
HETATM   10  C12   D T   1       1.905  11.830   2.050  1.00  8.74     0.283 A 
HETATM   11  C13   D T   1       5.419  14.107   1.776  1.00  8.60     0.093 A 
HETATM   12  C14   D T   1       4.989  15.284   1.002  1.00  8.87     0.094 A 
HETATM   13  N6    D T   1       3.648  15.084   0.778  1.00  8.74    -0.065 NA
HETATM   14  C15   D T   1       6.852  14.084   2.145  1.00  8.67    -0.007 A 
HETATM   15  C16   D T   1       7.812  15.141   1.787  1.00 10.01     0.028 A 
HETATM   16  C17   D T   1       7.312  16.263   1.020  1.00  8.30     0.011 A 
HETATM   17  C18   D T   1       5.926  16.361   0.618  1.00  8.80     0.048 A 
HETATM   18  O1    D T   1       0.877  11.168   1.985  1.00  9.45    -0.266 OA
ENDROOT
BRANCH   1  19
HETATM   19  N3    D T   1       6.453   9.540   4.262  1.00 10.50    -0.059 NA
BRANCH  19  20
HETATM   20  C5    D T   1       7.789   9.990   4.100  1.00 13.72     0.096 A 
HETATM   21  C6    D T   1       8.123  10.933   3.015  1.00 16.17     0.021 A 
HETATM   22  C7    D T   1       9.413  11.496   2.891  1.00 18.76     0.014 A 
HETATM   23  C8    D T   1      10.337  11.065   3.896  1.00 19.63     0.038 A 
HETATM   24  C9    D T   1      10.057  10.098   4.997  1.00 18.58     0.071 A 
HETATM   25  C10   D T   1       8.740   9.545   5.093  1.00 14.74    -0.000 A 
BRANCH  23  26
HETATM   26  N7    D T   1      11.518  11.743   3.730  1.00 23.52    -0.347 N 
HETATM   27  C27   D T   1      12.695  10.916   3.638  1.00 25.21     0.137 C 
HETATM   28  C28   D T   1      13.821  11.507   4.477  1.00 27.80     0.274 C 
HETATM   29  N8    D T   1      13.895  12.939   4.144  1.00 28.55     0.143 N 
HETATM   30  C29   D T   1      12.719  13.685   4.617  1.00 28.15     0.274 C 
HETATM   31  C31   D T   1      14.935  13.425   5.037  1.00 29.41     0.286 C 
HETATM   32  C30   D T   1      11.650  13.252   3.617  1.00 25.70     0.137 C 
ENDBRANCH  23  26
ENDBRANCH  19  20
ENDBRANCH   1  19
BRANCH   9  33
HETATM   33  C19   D T   1       0.913  13.788   0.921  1.00  9.46     0.076 A 
HETATM   34  C20   D T   1       0.001  14.486   1.827  1.00  9.11    -0.005 A 
HETATM   35  C21   D T   1      -1.185  15.139   1.292  1.00  9.01    -0.003 A 
HETATM   36  C26   D T   1       0.314  14.490   3.310  1.00  8.02     0.033 C 
HETATM   37  C22   D T   1      -1.503  15.136  -0.102  1.00  9.80    -0.001 A 
HETATM   38  C23   D T   1      -0.587  14.448  -0.934  1.00 10.49    -0.003 A 
HETATM   39  C24   D T   1       0.609  13.769  -0.487  1.00 10.01    -0.005 A 
HETATM   40  C25   D T   1       1.464  13.028  -1.492  1.00 10.21     0.033 C 
ENDBRANCH   9  33
TORSDOF 4
