REMARK  4 active torsions:
REMARK  status: ('A' for Active; 'I' for Inactive)
REMARK    1  A    between atoms: C1_1  and  N3_7 
REMARK    2  A    between atoms: N3_7  and  C5_8 
REMARK    3  A    between atoms: C8_11  and  N7_34 
REMARK    4  A    between atoms: N5_16  and  C19_26 
ROOT
HETATM    1  C1    D T   1      -2.995  -8.247  -5.551  1.00  8.98     0.751 A 
HETATM    2  N1    D T   1      -3.814  -7.312  -6.135  1.00  8.90    -0.041 NA
HETATM    3  C2    D T   1      -3.548  -5.991  -6.158  1.00  9.32     0.188 A 
HETATM    4  C3    D T   1      -2.277  -5.584  -5.498  1.00  8.55     0.112 A 
HETATM    5  C4    D T   1      -1.380  -6.568  -4.879  1.00 10.16     0.126 A 
HETATM    6  N2    D T   1      -1.799  -7.876  -4.937  1.00  8.40    -0.057 NA
HETATM    7  N4    D T   1      -4.500  -5.049  -6.757  1.00 10.02    -0.124 N 
HETATM    8  C11   D T   1      -4.301  -3.682  -6.786  1.00  8.08     0.723 A 
HETATM    9  N5    D T   1      -3.101  -3.215  -6.189  1.00  9.52    -0.107 N 
HETATM   10  C12   D T   1      -2.149  -4.161  -5.560  1.00  8.74     0.283 A 
HETATM   11  C13   D T   1      -5.778  -5.188  -7.400  1.00  8.60     0.093 A 
HETATM   12  C14   D T   1      -6.333  -3.879  -7.786  1.00  8.87     0.094 A 
HETATM   13  N6    D T   1      -5.383  -2.967  -7.391  1.00  8.74    -0.065 NA
HETATM   14  C15   D T   1      -6.631  -6.354  -7.721  1.00  8.67    -0.007 A 
HETATM   15  C16   D T   1      -7.944  -6.258  -8.380  1.00 10.01     0.028 A 
HETATM   16  C17   D T   1      -8.422  -4.934  -8.723  1.00  8.30     0.011 A 
HETATM   17  C18   D T   1      -7.651  -3.743  -8.442  1.00  8.80     0.048 A 
HETATM   18  O1    D T   1      -1.169  -3.780  -4.932  1.00  9.45    -0.266 OA
ENDROOT
BRANCH   1  19
HETATM   19  N3    D T   1      -3.438  -9.562  -5.529  1.00 10.50    -0.059 NA
BRANCH  19  20
HETATM   20  C5    D T   1      -4.691 -10.133  -5.873  1.00 13.72     0.096 A 
HETATM   21  C6    D T   1      -5.896  -9.282  -5.937  1.00 16.17     0.021 A 
HETATM   22  C7    D T   1      -7.137  -9.786  -6.387  1.00 18.76     0.014 A 
HETATM   23  C8    D T   1      -7.106 -11.168  -6.760  1.00 19.63     0.038 A 
HETATM   24  C9    D T   1      -5.924 -12.075  -6.690  1.00 18.58     0.071 A 
HETATM   25  C10   D T   1      -4.682 -11.533  -6.228  1.00 14.74    -0.000 A 
BRANCH  23  26
HETATM   26  N7    D T   1      -8.334 -11.516  -7.264  1.00 23.52    -0.347 N 
HETATM   27  C27   D T   1      -8.944 -12.672  -6.655  1.00 25.21     0.137 C 
HETATM   28  C28   D T   1      -9.543 -13.576  -7.724  1.00 27.80     0.274 C 
HETATM   29  N8    D T   1     -10.327 -12.712  -8.622  1.00 28.55     0.143 N 
HETATM   30  C29   D T   1      -9.477 -11.807  -9.410  1.00 28.15     0.274 C 
HETATM   31  C31   D T   1     -10.793 -13.643  -9.639  1.00 29.41     0.286 C 
HETATM   32  C30   D T   1      -9.068 -10.772  -8.365  1.00 25.70     0.137 C 
ENDBRANCH  23  26
ENDBRANCH  19  20
ENDBRANCH   1  19
BRANCH   9  33
HETATM   33  C19   D T   1      -2.780  -1.887  -6.282  1.00  9.46     0.076 A 
HETATM   34  C20   D T   1      -1.869  -1.418  -7.325  1.00  9.11    -0.005 A 
HETATM   35  C21   D T   1      -1.531  -0.003  -7.403  1.00  9.01    -0.003 A 
HETATM   36  C26   D T   1      -1.286  -2.431  -8.291  1.00  8.02     0.033 C 
HETATM   37  C22   D T   1      -2.061   0.966  -6.495  1.00  9.80    -0.001 A 
HETATM   38  C23   D T   1      -2.937   0.458  -5.506  1.00 10.49    -0.003 A 
HETATM   39  C24   D T   1      -3.321  -0.928  -5.353  1.00 10.01    -0.005 A 
HETATM   40  C25   D T   1      -4.228  -1.328  -4.209  1.00 10.21     0.033 C 
ENDBRANCH   9  33
TORSDOF 4
