REMARK  4 active torsions:
REMARK  status: ('A' for Active; 'I' for Inactive)
REMARK    1  A    between atoms: C1_1  and  N3_7 
REMARK    2  A    between atoms: N3_7  and  C5_8 
REMARK    3  A    between atoms: C8_11  and  N7_34 
REMARK    4  A    between atoms: N5_16  and  C19_26 
ROOT
HETATM    1  C1    D T   1      -9.574   0.413  -7.167  1.00  8.98     0.751 A 
HETATM    2  N1    D T   1     -10.335   1.499  -6.807  1.00  8.90    -0.041 NA
HETATM    3  C2    D T   1      -9.831   2.617  -6.249  1.00  9.32     0.188 A 
HETATM    4  C3    D T   1      -8.358   2.617  -6.038  1.00  8.55     0.112 A 
HETATM    5  C4    D T   1      -7.522   1.474  -6.428  1.00 10.16     0.126 A 
HETATM    6  N2    D T   1      -8.192   0.408  -6.980  1.00  8.40    -0.057 NA
HETATM    7  N4    D T   1     -10.718   3.713  -5.844  1.00 10.02    -0.124 N 
HETATM    8  C11   D T   1     -10.270   4.871  -5.241  1.00  8.08     0.723 A 
HETATM    9  N5    D T   1      -8.870   4.955  -5.019  1.00  9.52    -0.107 N 
HETATM   10  C12   D T   1      -7.973   3.839  -5.403  1.00  8.74     0.283 A 
HETATM   11  C13   D T   1     -12.139   3.926  -5.901  1.00  8.60     0.093 A 
HETATM   12  C14   D T   1     -12.515   5.218  -5.302  1.00  8.87     0.094 A 
HETATM   13  N6    D T   1     -11.324   5.779  -4.906  1.00  8.74    -0.065 NA
HETATM   14  C15   D T   1     -13.267   3.115  -6.410  1.00  8.67    -0.007 A 
HETATM   15  C16   D T   1     -14.678   3.531  -6.344  1.00 10.01     0.028 A 
HETATM   16  C17   D T   1     -14.965   4.814  -5.734  1.00  8.30     0.011 A 
HETATM   17  C18   D T   1     -13.921   5.666  -5.211  1.00  8.80     0.048 A 
HETATM   18  O1    D T   1      -6.783   3.830  -5.115  1.00  9.45    -0.266 OA
ENDROOT
BRANCH   1  19
HETATM   19  N3    D T   1     -10.239  -0.703  -7.653  1.00 10.50    -0.059 NA
BRANCH  19  20
HETATM   20  C5    D T   1     -11.622  -1.015  -7.714  1.00 13.72     0.096 A 
HETATM   21  C6    D T   1     -12.579  -0.296  -6.850  1.00 16.17     0.021 A 
HETATM   22  C7    D T   1     -13.973  -0.492  -6.963  1.00 18.76     0.014 A 
HETATM   23  C8    D T   1     -14.351  -1.437  -7.970  1.00 19.63     0.038 A 
HETATM   24  C9    D T   1     -13.425  -2.206  -8.850  1.00 18.58     0.071 A 
HETATM   25  C10   D T   1     -12.017  -1.985  -8.709  1.00 14.74    -0.000 A 
BRANCH  23  26
HETATM   26  N7    D T   1     -15.720  -1.474  -8.049  1.00 23.52    -0.347 N 
HETATM   27  C27   D T   1     -16.308  -2.786  -7.941  1.00 25.21     0.137 C 
HETATM   28  C28   D T   1     -17.404  -2.961  -8.983  1.00 27.80     0.274 C 
HETATM   29  N8    D T   1     -18.254  -1.761  -8.913  1.00 28.55     0.143 N 
HETATM   30  C29   D T   1     -17.557  -0.553  -9.382  1.00 28.15     0.274 C 
HETATM   31  C31   D T   1     -19.215  -1.983  -9.983  1.00 29.41     0.286 C 
HETATM   32  C30   D T   1     -16.618  -0.261  -8.215  1.00 25.70     0.137 C 
ENDBRANCH  23  26
ENDBRANCH  19  20
ENDBRANCH   1  19
BRANCH   9  33
HETATM   33  C19   D T   1      -8.337   6.120  -4.532  1.00  9.46     0.076 A 
HETATM   34  C20   D T   1      -7.760   7.107  -5.443  1.00  9.11    -0.005 A 
HETATM   35  C21   D T   1      -7.190   8.335  -4.907  1.00  9.01    -0.003 A 
HETATM   36  C26   D T   1      -7.757   6.808  -6.930  1.00  8.02     0.033 C 
HETATM   37  C22   D T   1      -7.173   8.629  -3.508  1.00  9.80    -0.001 A 
HETATM   38  C23   D T   1      -7.745   7.641  -2.671  1.00 10.49    -0.003 A 
HETATM   39  C24   D T   1      -8.326   6.394  -3.118  1.00 10.01    -0.005 A 
HETATM   40  C25   D T   1      -8.852   5.409  -2.096  1.00 10.21     0.033 C 
ENDBRANCH   9  33
TORSDOF 4
