REMARK  20 active torsions:
REMARK  status: ('A' for Active; 'I' for Inactive)
REMARK    1  A    between atoms: C1_1  and  O1_20 
REMARK    2  A    between atoms: C4_4  and  C9_9 
REMARK    3  A    between atoms: C7_7  and  C8_8 
REMARK    4  A    between atoms: C7_7  and  O1_20 
REMARK    5  A    between atoms: C8_8  and  C10_10 
REMARK    6  A    between atoms: C10_10  and  C8'_18 
REMARK    7  A    between atoms: C1'_11  and  O1'_21 
REMARK    8  A    between atoms: C4'_14  and  C9'_19 
REMARK    9  A    between atoms: C7'_17  and  C8'_18 
REMARK   10  A    between atoms: C7'_17  and  O1'_21 
REMARK   11  A    between atoms: C1_26  and  O1_45 
REMARK   12  A    between atoms: C4_29  and  C9_34 
REMARK   13  A    between atoms: C7_32  and  C8_33 
REMARK   14  A    between atoms: C7_32  and  O1_45 
REMARK   15  A    between atoms: C8_33  and  C10_35 
REMARK   16  A    between atoms: C10_35  and  C8'_43 
REMARK   17  A    between atoms: C1'_36  and  O1'_46 
REMARK   18  A    between atoms: C4'_39  and  C9'_44 
REMARK   19  A    between atoms: C7'_42  and  C8'_43 
REMARK   20  A    between atoms: C7'_42  and  O1'_46 
ROOT
HETATM    1  C10   D T 101     -12.797   7.825  -2.089  0.50 43.26     0.005 C 
ENDROOT
BRANCH   1   2
HETATM    2  C8    D T 101     -14.147   7.182  -1.770  0.50 44.23     0.033 C 
BRANCH   2   3
HETATM    3  C7    D T 101     -14.852   7.917  -0.630  0.50 45.07     0.149 C 
BRANCH   3   4
HETATM    4  O1    D T 101     -15.702   7.051   0.134  0.50 45.77    -0.331 OA
BRANCH   4   5
HETATM    5  C1    D T 101     -16.142   7.442   1.379  0.50 45.59     0.094 A 
HETATM    6  C2    D T 101     -16.303   6.500   2.396  0.50 45.41     0.024 A 
HETATM    7  C3    D T 101     -16.746   6.901   3.659  0.50 45.63     0.005 A 
HETATM    8  C4    D T 101     -17.035   8.246   3.917  0.50 45.70     0.040 A 
HETATM    9  C5    D T 101     -16.874   9.180   2.894  0.50 45.73     0.005 A 
HETATM   10  C6    D T 101     -16.432   8.784   1.633  0.50 45.57     0.024 A 
BRANCH   8  11
HETATM   11  C9    D T 101     -17.524   8.688   5.277  0.50 45.61     0.205 C 
HETATM   12  N1    D T 101     -17.597   9.912   5.575  0.50 44.78    -0.125 N 
HETATM   13  N2    D T 101     -17.875   7.786   6.194  0.50 45.85    -0.125 N 
ENDBRANCH   8  11
ENDBRANCH   4   5
ENDBRANCH   3   4
ENDBRANCH   2   3
ENDBRANCH   1   2
BRANCH   1  14
HETATM   14  C8'   D T 101     -12.948   9.078  -2.950  0.50 42.61     0.033 C 
BRANCH  14  15
HETATM   15  C7'   D T 101     -12.365  10.336  -2.302  0.50 41.92     0.149 C 
BRANCH  15  16
HETATM   16  O1'   D T 101     -12.622  10.363  -0.893  0.50 41.20    -0.331 OA
BRANCH  16  17
HETATM   17  C1'   D T 101     -12.807  11.519  -0.169  0.50 40.56     0.094 A 
HETATM   18  C2'   D T 101     -12.181  12.704  -0.542  0.50 40.10     0.024 A 
HETATM   19  C3'   D T 101     -12.364  13.865   0.203  0.50 39.98     0.005 A 
HETATM   20  C4'   D T 101     -13.185  13.857   1.327  0.50 40.28     0.040 A 
HETATM   21  C5'   D T 101     -13.815  12.669   1.708  0.50 40.14     0.005 A 
HETATM   22  C6'   D T 101     -13.625  11.504   0.963  0.50 40.31     0.024 A 
BRANCH  20  23
HETATM   23  C9'   D T 101     -13.375  15.125   2.115  0.50 40.31     0.205 C 
HETATM   24  N1'   D T 101     -12.465  15.997   2.138  0.50 39.70    -0.125 N 
HETATM   25  N2'   D T 101     -14.502  15.345   2.792  0.50 40.00    -0.125 N 
ENDBRANCH  20  23
ENDBRANCH  16  17
ENDBRANCH  15  16
ENDBRANCH  14  15
ENDBRANCH   1  14
TORSDOF 20
