REMARK  20 active torsions:
REMARK  status: ('A' for Active; 'I' for Inactive)
REMARK    1  A    between atoms: C1_1  and  O1_20 
REMARK    2  A    between atoms: C4_4  and  C9_9 
REMARK    3  A    between atoms: C7_7  and  C8_8 
REMARK    4  A    between atoms: C7_7  and  O1_20 
REMARK    5  A    between atoms: C8_8  and  C10_10 
REMARK    6  A    between atoms: C10_10  and  C8'_18 
REMARK    7  A    between atoms: C1'_11  and  O1'_21 
REMARK    8  A    between atoms: C4'_14  and  C9'_19 
REMARK    9  A    between atoms: C7'_17  and  C8'_18 
REMARK   10  A    between atoms: C7'_17  and  O1'_21 
REMARK   11  A    between atoms: C1_26  and  O1_45 
REMARK   12  A    between atoms: C4_29  and  C9_34 
REMARK   13  A    between atoms: C7_32  and  C8_33 
REMARK   14  A    between atoms: C7_32  and  O1_45 
REMARK   15  A    between atoms: C8_33  and  C10_35 
REMARK   16  A    between atoms: C10_35  and  C8'_43 
REMARK   17  A    between atoms: C1'_36  and  O1'_46 
REMARK   18  A    between atoms: C4'_39  and  C9'_44 
REMARK   19  A    between atoms: C7'_42  and  C8'_43 
REMARK   20  A    between atoms: C7'_42  and  O1'_46 
ROOT
HETATM    1  C10   D T 101      -4.456  -5.590  -9.684  0.50 43.26     0.005 C 
ENDROOT
BRANCH   1   2
HETATM    2  C8    D T 101      -3.294  -4.954 -10.446  0.50 44.23     0.033 C 
BRANCH   2   3
HETATM    3  C7    D T 101      -2.267  -6.007 -10.865  0.50 45.07     0.149 C 
BRANCH   3   4
HETATM    4  O1    D T 101      -0.941  -5.471 -10.949  0.50 45.77    -0.331 OA
BRANCH   4   5
HETATM    5  C1    D T 101       0.144  -6.320 -10.975  0.50 45.59     0.094 A 
HETATM    6  C2    D T 101       1.339  -5.953 -10.352  0.50 45.41     0.024 A 
HETATM    7  C3    D T 101       2.436  -6.819 -10.377  0.50 45.63     0.005 A 
HETATM    8  C4    D T 101       2.350  -8.057 -11.025  0.50 45.70     0.040 A 
HETATM    9  C5    D T 101       1.154  -8.413 -11.646  0.50 45.73     0.005 A 
HETATM   10  C6    D T 101       0.057  -7.552 -11.623  0.50 45.57     0.024 A 
BRANCH   8  11
HETATM   11  C9    D T 101       3.534  -8.995 -11.065  0.50 45.61     0.205 C 
HETATM   12  N1    D T 101       3.408 -10.183 -11.471  0.50 44.78    -0.125 N 
HETATM   13  N2    D T 101       4.735  -8.584 -10.657  0.50 45.85    -0.125 N 
ENDBRANCH   8  11
ENDBRANCH   4   5
ENDBRANCH   3   4
ENDBRANCH   2   3
ENDBRANCH   1   2
BRANCH   1  14
HETATM   14  C8'   D T 101      -5.467  -6.247 -10.623  0.50 42.61     0.033 C 
BRANCH  14  15
HETATM   15  C7'   D T 101      -5.668  -7.740 -10.353  0.50 41.92     0.149 C 
BRANCH  15  16
HETATM   16  O1'   D T 101      -4.430  -8.381 -10.023  0.50 41.20    -0.331 OA
BRANCH  16  17
HETATM   17  C1'   D T 101      -4.141  -9.691 -10.329  0.50 40.56     0.094 A 
HETATM   18  C2'   D T 101      -5.146 -10.650 -10.399  0.50 40.10     0.024 A 
HETATM   19  C3'   D T 101      -4.842 -11.974 -10.697  0.50 39.98     0.005 A 
HETATM   20  C4'   D T 101      -3.525 -12.356 -10.939  0.50 40.28     0.040 A 
HETATM   21  C5'   D T 101      -2.510 -11.398 -10.868  0.50 40.14     0.005 A 
HETATM   22  C6'   D T 101      -2.817 -10.071 -10.562  0.50 40.31     0.024 A 
BRANCH  20  23
HETATM   23  C9'   D T 101      -3.218 -13.792 -11.265  0.50 40.31     0.205 C 
HETATM   24  N1'   D T 101      -3.956 -14.713 -10.823  0.50 39.70    -0.125 N 
HETATM   25  N2'   D T 101      -2.171 -14.110 -12.026  0.50 40.00    -0.125 N 
ENDBRANCH  20  23
ENDBRANCH  16  17
ENDBRANCH  15  16
ENDBRANCH  14  15
ENDBRANCH   1  14
TORSDOF 20
