REMARK  20 active torsions:
REMARK  status: ('A' for Active; 'I' for Inactive)
REMARK    1  A    between atoms: C1_1  and  O1_20 
REMARK    2  A    between atoms: C4_4  and  C9_9 
REMARK    3  A    between atoms: C7_7  and  C8_8 
REMARK    4  A    between atoms: C7_7  and  O1_20 
REMARK    5  A    between atoms: C8_8  and  C10_10 
REMARK    6  A    between atoms: C10_10  and  C8'_18 
REMARK    7  A    between atoms: C1'_11  and  O1'_21 
REMARK    8  A    between atoms: C4'_14  and  C9'_19 
REMARK    9  A    between atoms: C7'_17  and  C8'_18 
REMARK   10  A    between atoms: C7'_17  and  O1'_21 
REMARK   11  A    between atoms: C1_26  and  O1_45 
REMARK   12  A    between atoms: C4_29  and  C9_34 
REMARK   13  A    between atoms: C7_32  and  C8_33 
REMARK   14  A    between atoms: C7_32  and  O1_45 
REMARK   15  A    between atoms: C8_33  and  C10_35 
REMARK   16  A    between atoms: C10_35  and  C8'_43 
REMARK   17  A    between atoms: C1'_36  and  O1'_46 
REMARK   18  A    between atoms: C4'_39  and  C9'_44 
REMARK   19  A    between atoms: C7'_42  and  C8'_43 
REMARK   20  A    between atoms: C7'_42  and  O1'_46 
ROOT
HETATM    1  C10   D T 101      -8.939 -27.012   9.891  0.50 43.26     0.005 C 
ENDROOT
BRANCH   1   2
HETATM    2  C8    D T 101      -7.682 -27.843  10.151  0.50 44.23     0.033 C 
BRANCH   2   3
HETATM    3  C7    D T 101      -6.984 -27.400  11.438  0.50 45.07     0.149 C 
BRANCH   3   4
HETATM    4  O1    D T 101      -5.568 -27.616  11.392  0.50 45.77    -0.331 OA
BRANCH   4   5
HETATM    5  C1    D T 101      -4.745 -26.980  12.295  0.50 45.59     0.094 A 
HETATM    6  C2    D T 101      -3.472 -26.557  11.909  0.50 45.41     0.024 A 
HETATM    7  C3    D T 101      -2.642 -25.908  12.828  0.50 45.63     0.005 A 
HETATM    8  C4    D T 101      -3.074 -25.679  14.139  0.50 45.70     0.040 A 
HETATM    9  C5    D T 101      -4.346 -26.108  14.515  0.50 45.73     0.005 A 
HETATM   10  C6    D T 101      -5.178 -26.755  13.603  0.50 45.57     0.024 A 
BRANCH   8  11
HETATM   11  C9    D T 101      -2.180 -24.988  15.141  0.50 45.61     0.205 C 
HETATM   12  N1    D T 101      -2.628 -24.604  16.256  0.50 44.78    -0.125 N 
HETATM   13  N2    D T 101      -0.898 -24.758  14.856  0.50 45.85    -0.125 N 
ENDBRANCH   8  11
ENDBRANCH   4   5
ENDBRANCH   3   4
ENDBRANCH   2   3
ENDBRANCH   1   2
BRANCH   1  14
HETATM   14  C8'   D T 101     -10.123 -27.485  10.733  0.50 42.61     0.033 C 
BRANCH  14  15
HETATM   15  C7'   D T 101     -10.696 -26.396  11.643  0.50 41.92     0.149 C 
BRANCH  15  16
HETATM   16  O1'   D T 101      -9.657 -25.586  12.205  0.50 41.20    -0.331 OA
BRANCH  16  17
HETATM   17  C1'   D T 101      -9.733 -24.995  13.446  0.50 40.56     0.094 A 
HETATM   18  C2'   D T 101     -10.956 -24.602  13.979  0.50 40.10     0.024 A 
HETATM   19  C3'   D T 101     -11.021 -23.995  15.228  0.50 39.98     0.005 A 
HETATM   20  C4'   D T 101      -9.861 -23.781  15.967  0.50 40.28     0.040 A 
HETATM   21  C5'   D T 101      -8.629 -24.171  15.437  0.50 40.14     0.005 A 
HETATM   22  C6'   D T 101      -8.565 -24.775  14.180  0.50 40.31     0.024 A 
BRANCH  20  23
HETATM   23  C9'   D T 101      -9.954 -23.127  17.320  0.50 40.31     0.205 C 
HETATM   24  N1'   D T 101     -10.889 -22.320  17.569  0.50 39.70    -0.125 N 
HETATM   25  N2'   D T 101      -9.057 -23.395  18.269  0.50 40.00    -0.125 N 
ENDBRANCH  20  23
ENDBRANCH  16  17
ENDBRANCH  15  16
ENDBRANCH  14  15
ENDBRANCH   1  14
TORSDOF 20
