REMARK  20 active torsions:
REMARK  status: ('A' for Active; 'I' for Inactive)
REMARK    1  A    between atoms: C1_1  and  O1_20 
REMARK    2  A    between atoms: C4_4  and  C9_9 
REMARK    3  A    between atoms: C7_7  and  C8_8 
REMARK    4  A    between atoms: C7_7  and  O1_20 
REMARK    5  A    between atoms: C8_8  and  C10_10 
REMARK    6  A    between atoms: C10_10  and  C8'_18 
REMARK    7  A    between atoms: C1'_11  and  O1'_21 
REMARK    8  A    between atoms: C4'_14  and  C9'_19 
REMARK    9  A    between atoms: C7'_17  and  C8'_18 
REMARK   10  A    between atoms: C7'_17  and  O1'_21 
REMARK   11  A    between atoms: C1_26  and  O1_45 
REMARK   12  A    between atoms: C4_29  and  C9_34 
REMARK   13  A    between atoms: C7_32  and  C8_33 
REMARK   14  A    between atoms: C7_32  and  O1_45 
REMARK   15  A    between atoms: C8_33  and  C10_35 
REMARK   16  A    between atoms: C10_35  and  C8'_43 
REMARK   17  A    between atoms: C1'_36  and  O1'_46 
REMARK   18  A    between atoms: C4'_39  and  C9'_44 
REMARK   19  A    between atoms: C7'_42  and  C8'_43 
REMARK   20  A    between atoms: C7'_42  and  O1'_46 
ROOT
HETATM    1  C10   D T 101      -5.305  -1.065   2.455  0.50 43.26     0.005 C 
ENDROOT
BRANCH   1   2
HETATM    2  C8    D T 101      -5.448  -1.693   1.069  0.50 44.23     0.033 C 
BRANCH   2   3
HETATM    3  C7    D T 101      -6.523  -2.780   1.063  0.50 45.07     0.149 C 
BRANCH   3   4
HETATM    4  O1    D T 101      -6.259  -3.803   0.095  0.50 45.77    -0.331 OA
BRANCH   4   5
HETATM    5  C1    D T 101      -6.912  -5.013   0.176  0.50 45.59     0.094 A 
HETATM    6  C2    D T 101      -6.257  -6.192  -0.185  0.50 45.41     0.024 A 
HETATM    7  C3    D T 101      -6.922  -7.418  -0.097  0.50 45.63     0.005 A 
HETATM    8  C4    D T 101      -8.247  -7.477   0.349  0.50 45.70     0.040 A 
HETATM    9  C5    D T 101      -8.894  -6.294   0.705  0.50 45.73     0.005 A 
HETATM   10  C6    D T 101      -8.234  -5.070   0.620  0.50 45.57     0.024 A 
BRANCH   8  11
HETATM   11  C9    D T 101      -8.978  -8.797   0.438  0.50 45.61     0.205 C 
HETATM   12  N1    D T 101     -10.094  -8.884   1.020  0.50 44.78    -0.125 N 
HETATM   13  N2    D T 101      -8.445  -9.900  -0.089  0.50 45.85    -0.125 N 
ENDBRANCH   8  11
ENDBRANCH   4   5
ENDBRANCH   3   4
ENDBRANCH   2   3
ENDBRANCH   1   2
BRANCH   1  14
HETATM   14  C8'   D T 101      -6.397  -0.031   2.732  0.50 42.61     0.033 C 
BRANCH  14  15
HETATM   15  C7'   D T 101      -7.241  -0.353   3.966  0.50 41.92     0.149 C 
BRANCH  15  16
HETATM   16  O1'   D T 101      -7.501  -1.759   4.067  0.50 41.20    -0.331 OA
BRANCH  16  17
HETATM   17  C1'   D T 101      -8.647  -2.288   4.616  0.50 40.56     0.094 A 
HETATM   18  C2'   D T 101      -9.330  -1.624   5.629  0.50 40.10     0.024 A 
HETATM   19  C3'   D T 101     -10.480  -2.173   6.185  0.50 39.98     0.005 A 
HETATM   20  C4'   D T 101     -10.970  -3.393   5.726  0.50 40.28     0.040 A 
HETATM   21  C5'   D T 101     -10.289  -4.066   4.709  0.50 40.14     0.005 A 
HETATM   22  C6'   D T 101      -9.130  -3.516   4.157  0.50 40.31     0.024 A 
BRANCH  20  23
HETATM   23  C9'   D T 101     -12.220  -3.967   6.337  0.50 40.31     0.205 C 
HETATM   24  N1'   D T 101     -12.521  -3.699   7.531  0.50 39.70    -0.125 N 
HETATM   25  N2'   D T 101     -13.025  -4.757   5.627  0.50 40.00    -0.125 N 
ENDBRANCH  20  23
ENDBRANCH  16  17
ENDBRANCH  15  16
ENDBRANCH  14  15
ENDBRANCH   1  14
TORSDOF 20
