REMARK  2 active torsions:
REMARK  status: ('A' for Active; 'I' for Inactive)
REMARK    1  A    between atoms: C5_4  and  O7_13 
REMARK    2  A    between atoms: C8_10  and  O7_13 
ROOT
HETATM    1  O7    D T 400       0.458 -19.687  -2.054  1.00 63.04    -0.304 OA
ENDROOT
BRANCH   1   2
HETATM    2  C5    D T 400      -0.201 -18.759  -1.300  1.00 59.76     0.125 A 
HETATM    3  C6    D T 400       0.335 -18.381  -0.089  1.00 54.83     0.154 A 
HETATM    4  C1    D T 400      -0.307 -17.415   0.682  1.00 54.43     0.041 A 
HETATM    5  O17   D T 400       1.484 -18.978   0.320  1.00 54.30    -0.188 OA
HETATM    6  C2    D T 400      -1.488 -16.849   0.212  1.00 50.51     0.060 A 
HETATM    7  C3    D T 400      -2.028 -17.229  -1.009  1.00 52.10     0.014 A 
HETATM    8 CL14   D T 400      -2.337 -15.616   1.172  1.00 49.50    -0.082 Cl
HETATM    9  C4    D T 400      -1.372 -18.178  -1.778  1.00 57.51     0.028 A 
ENDBRANCH   1   2
BRANCH   1  10
HETATM   10  C8    D T 400       0.100 -21.001  -2.027  1.00 59.17     0.111 A 
HETATM   11  C9    D T 400       0.731 -21.839  -2.913  1.00 58.03     0.081 A 
HETATM   12  C10   D T 400       0.425 -23.178  -2.956  1.00 63.10     0.025 A 
HETATM   13 CL16   D T 400       1.966 -21.179  -4.025  1.00 86.42    -0.080 Cl
HETATM   14  C11   D T 400      -0.534 -23.668  -2.093  1.00 63.97     0.059 A 
HETATM   15  C12   D T 400      -1.185 -22.829  -1.189  1.00 65.40     0.013 A 
HETATM   16 CL15   D T 400      -0.900 -25.412  -2.188  1.00 74.53    -0.082 Cl
HETATM   17  C13   D T 400      -0.875 -21.473  -1.155  1.00 59.83     0.026 A 
ENDBRANCH   1  10
TORSDOF 2
