REMARK  2 active torsions:
REMARK  status: ('A' for Active; 'I' for Inactive)
REMARK    1  A    between atoms: C5_4  and  O7_13 
REMARK    2  A    between atoms: C8_10  and  O7_13 
ROOT
HETATM    1  O7    D T 400       8.109   1.836  -5.866  1.00 63.04    -0.304 OA
ENDROOT
BRANCH   1   2
HETATM    2  C5    D T 400       8.031   1.753  -7.226  1.00 59.76     0.125 A 
HETATM    3  C6    D T 400       7.560   0.593  -7.798  1.00 54.83     0.154 A 
HETATM    4  C1    D T 400       7.446   0.499  -9.183  1.00 54.43     0.041 A 
HETATM    5  O17   D T 400       7.225  -0.438  -6.980  1.00 54.30    -0.188 OA
HETATM    6  C2    D T 400       7.817   1.587  -9.968  1.00 50.51     0.060 A 
HETATM    7  C3    D T 400       8.291   2.757  -9.392  1.00 52.10     0.014 A 
HETATM    8 CL14   D T 400       7.689   1.501 -11.740  1.00 49.50    -0.082 Cl
HETATM    9  C4    D T 400       8.383   2.848  -8.011  1.00 57.51     0.028 A 
ENDBRANCH   1   2
BRANCH   1  10
HETATM   10  C8    D T 400       9.280   1.603  -5.211  1.00 59.17     0.111 A 
HETATM   11  C9    D T 400       9.297   1.835  -3.857  1.00 58.03     0.081 A 
HETATM   12  C10   D T 400      10.439   1.631  -3.121  1.00 63.10     0.025 A 
HETATM   13 CL16   D T 400       7.812   2.411  -3.043  1.00 86.42    -0.080 Cl
HETATM   14  C11   D T 400      11.576   1.190  -3.768  1.00 63.97     0.059 A 
HETATM   15  C12   D T 400      11.575   0.952  -5.142  1.00 65.40     0.013 A 
HETATM   16 CL15   D T 400      13.035   0.943  -2.772  1.00 74.53    -0.082 Cl
HETATM   17  C13   D T 400      10.417   1.167  -5.883  1.00 59.83     0.026 A 
ENDBRANCH   1  10
TORSDOF 2
