REMARK  2 active torsions:
REMARK  status: ('A' for Active; 'I' for Inactive)
REMARK    1  A    between atoms: C22_10  and  C19_16 
REMARK    2  A    between atoms: C12_12  and  C18_15 
ROOT
HETATM    1  C5    D T9000       1.288  12.693   0.936  1.00 15.43     0.031 A 
HETATM    2  C6    D T9000       1.368  11.649   1.899  1.00 14.10     0.021 A 
HETATM    3  C7    D T9000       3.756  12.981   0.960  1.00 15.14     0.031 A 
HETATM    4  C15   D T9000       2.471  13.345   0.478  1.00 15.55     0.140 A 
HETATM    5  C17   D T9000       3.831  11.937   1.924  1.00 14.45     0.025 A 
HETATM    6  C20   D T9000       4.947  11.282   2.657  1.00 13.45     0.061 A 
HETATM    7  C21   D T9000       4.314  10.232   3.545  1.00 13.66     0.279 A 
HETATM    8  C12   D T9000       6.233  11.658   2.471  1.00 15.97     0.024 C 
HETATM    9  C16   D T9000       2.643  11.296   2.370  1.00 12.00     0.085 A 
HETATM   10  N24   D T9000       2.942  10.311   3.308  1.00 11.43    -0.208 NA
HETATM   11  O27   D T9000       4.878   9.475   4.308  1.00 15.23    -0.265 OA
HETATM   12  F29   D T9000       2.363  14.325  -0.433  1.00 17.21    -0.204 F 
ENDROOT
BRANCH   8  13
HETATM   13  C18   D T9000       7.465  11.215   3.055  1.00 15.83     0.077 A 
HETATM   14  C13   D T9000       8.776  11.639   2.820  1.00 17.58     0.001 A 
HETATM   15  C3    D T9000       9.198  12.702   1.850  1.00 18.30     0.033 C 
HETATM   16  C19   D T9000       9.655  10.876   3.685  1.00 17.94     0.064 A 
HETATM   17  C14   D T9000       8.840  10.015   4.407  1.00 17.03     0.063 A 
HETATM   18  C4    D T9000       9.126   8.989   5.447  1.00 17.32     0.052 C 
HETATM   19  N23   D T9000       7.541  10.233   4.013  1.00 14.09    -0.250 NA
BRANCH  16  20
HETATM   20  C22   D T9000      11.125  10.996   3.778  1.00 21.63     0.267 C 
HETATM   21  N25   D T9000      11.799  10.957   2.570  1.00 24.57    -0.057 NA
HETATM   22  O28   D T9000      11.692  11.116   4.868  1.00 26.27    -0.271 OA
ENDBRANCH  16  20
ENDBRANCH   8  13
TORSDOF 2
