REMARK  2 active torsions:
REMARK  status: ('A' for Active; 'I' for Inactive)
REMARK    1  A    between atoms: C22_10  and  C19_16 
REMARK    2  A    between atoms: C12_12  and  C18_15 
ROOT
HETATM    1  C5    D T9000       6.250  -0.454  -7.845  1.00 15.43     0.031 A 
HETATM    2  C6    D T9000       5.271  -0.087  -8.809  1.00 14.10     0.021 A 
HETATM    3  C7    D T9000       6.745   1.931  -7.355  1.00 15.14     0.031 A 
HETATM    4  C15   D T9000       6.973   0.547  -7.131  1.00 15.55     0.140 A 
HETATM    5  C17   D T9000       5.767   2.294  -8.322  1.00 14.45     0.025 A 
HETATM    6  C20   D T9000       5.251   3.590  -8.837  1.00 13.45     0.061 A 
HETATM    7  C21   D T9000       4.202   3.248  -9.874  1.00 13.66     0.279 A 
HETATM    8  C12   D T9000       5.723   4.772  -8.379  1.00 15.97     0.024 C 
HETATM    9  C16   D T9000       5.054   1.284  -9.025  1.00 12.00     0.085 A 
HETATM   10  N24   D T9000       4.152   1.855  -9.918  1.00 11.43    -0.208 NA
HETATM   11  O27   D T9000       3.540   4.021 -10.534  1.00 15.23    -0.265 OA
HETATM   12  F29   D T9000       7.887   0.168  -6.225  1.00 17.21    -0.204 F 
ENDROOT
BRANCH   8  13
HETATM   13  C18   D T9000       5.418   6.132  -8.716  1.00 15.83     0.077 A 
HETATM   14  C13   D T9000       5.937   7.324  -8.203  1.00 17.58     0.001 A 
HETATM   15  C3    D T9000       6.976   7.442  -7.128  1.00 18.30     0.033 C 
HETATM   16  C19   D T9000       5.300   8.425  -8.899  1.00 17.94     0.064 A 
HETATM   17  C14   D T9000       4.415   7.855  -9.804  1.00 17.03     0.063 A 
HETATM   18  C4    D T9000       3.477   8.438 -10.802  1.00 17.32     0.052 C 
HETATM   19  N23   D T9000       4.501   6.489  -9.675  1.00 14.09    -0.250 NA
BRANCH  16  20
HETATM   20  C22   D T9000       5.549   9.866  -8.686  1.00 21.63     0.267 C 
HETATM   21  N25   D T9000       5.500  10.287  -7.369  1.00 24.57    -0.057 NA
HETATM   22  O28   D T9000       5.777  10.626  -9.633  1.00 26.27    -0.271 OA
ENDBRANCH  16  20
ENDBRANCH   8  13
TORSDOF 2
