REMARK  2 active torsions:
REMARK  status: ('A' for Active; 'I' for Inactive)
REMARK    1  A    between atoms: C22_10  and  C19_16 
REMARK    2  A    between atoms: C12_12  and  C18_15 
ROOT
HETATM    1  C5    D T9000       6.400  -0.895  -8.146  1.00 15.43     0.031 A 
HETATM    2  C6    D T9000       6.190   0.436  -8.600  1.00 14.10     0.021 A 
HETATM    3  C7    D T9000       8.168  -0.142  -6.571  1.00 15.14     0.031 A 
HETATM    4  C15   D T9000       7.377  -1.172  -7.145  1.00 15.55     0.140 A 
HETATM    5  C17   D T9000       7.956   1.189  -7.029  1.00 14.45     0.025 A 
HETATM    6  C20   D T9000       8.560   2.507  -6.698  1.00 13.45     0.061 A 
HETATM    7  C21   D T9000       7.860   3.527  -7.572  1.00 13.66     0.279 A 
HETATM    8  C12   D T9000       9.542   2.623  -5.775  1.00 15.97     0.024 C 
HETATM    9  C16   D T9000       6.977   1.449  -8.028  1.00 12.00     0.085 A 
HETATM   10  N24   D T9000       6.935   2.808  -8.329  1.00 11.43    -0.208 NA
HETATM   11  O27   D T9000       8.060   4.723  -7.611  1.00 15.23    -0.265 OA
HETATM   12  F29   D T9000       7.549  -2.439  -6.735  1.00 17.21    -0.204 F 
ENDROOT
BRANCH   8  13
HETATM   13  C18   D T9000      10.292   3.748  -5.297  1.00 15.83     0.077 A 
HETATM   14  C13   D T9000      11.300   3.812  -4.331  1.00 17.58     0.001 A 
HETATM   15  C3    D T9000      11.838   2.656  -3.540  1.00 18.30     0.033 C 
HETATM   16  C19   D T9000      11.739   5.190  -4.232  1.00 17.94     0.064 A 
HETATM   17  C14   D T9000      10.974   5.909  -5.142  1.00 17.03     0.063 A 
HETATM   18  C4    D T9000      10.942   7.349  -5.518  1.00 17.32     0.052 C 
HETATM   19  N23   D T9000      10.119   5.029  -5.762  1.00 14.09    -0.250 NA
BRANCH  16  20
HETATM   20  C22   D T9000      12.793   5.721  -3.343  1.00 21.63     0.267 C 
HETATM   21  N25   D T9000      12.683   5.354  -2.012  1.00 24.57    -0.057 NA
HETATM   22  O28   D T9000      13.696   6.443  -3.775  1.00 26.27    -0.271 OA
ENDBRANCH  16  20
ENDBRANCH   8  13
TORSDOF 2
