REMARK  2 active torsions:
REMARK  status: ('A' for Active; 'I' for Inactive)
REMARK    1  A    between atoms: C5_4  and  O7_13 
REMARK    2  A    between atoms: C8_10  and  O7_13 
ROOT
HETATM    1  O7    D T 371       5.061  22.724 -21.488  1.00 19.13    -0.304 OA
ENDROOT
BRANCH   1   2
HETATM    2  C5    D T 371       5.426  22.306 -20.235  1.00 24.01     0.125 A 
HETATM    3  C6    D T 371       5.716  20.875 -19.972  1.00 25.08     0.154 A 
HETATM    4  C1    D T 371       6.083  20.487 -18.691  1.00 24.96     0.041 A 
HETATM    5  O17   D T 371       5.625  19.956 -20.973  1.00 32.11    -0.188 OA
HETATM    6  C2    D T 371       6.173  21.434 -17.676  1.00 25.04     0.060 A 
HETATM    7  C3    D T 371       5.900  22.777 -17.924  1.00 27.50     0.014 A 
HETATM    8 CL14   D T 371       6.649  20.919 -16.023  1.00 23.09    -0.082 Cl
HETATM    9  C4    D T 371       5.529  23.216 -19.192  1.00 24.93     0.028 A 
ENDBRANCH   1   2
BRANCH   1  10
HETATM   10  C8    D T 371       4.765  21.802 -22.458  1.00 19.85     0.111 A 
HETATM   11  C9    D T 371       3.431  21.152 -22.497  1.00 17.43     0.081 A 
HETATM   12  C10   D T 371       3.164  20.223 -23.493  1.00 16.58     0.025 A 
HETATM   13 CL16   D T 371       2.182  21.562 -21.274  1.00 28.15    -0.080 Cl
HETATM   14  C11   D T 371       4.140  19.913 -24.436  1.00 19.66     0.059 A 
HETATM   15  C12   D T 371       5.391  20.524 -24.397  1.00 21.08     0.013 A 
HETATM   16 CL15   D T 371       3.782  18.710 -25.719  1.00 21.08    -0.082 Cl
HETATM   17  C13   D T 371       5.707  21.462 -23.419  1.00 20.62     0.026 A 
ENDBRANCH   1  10
TORSDOF 2
