REMARK  2 active torsions:
REMARK  status: ('A' for Active; 'I' for Inactive)
REMARK    1  A    between atoms: C5_4  and  O7_13 
REMARK    2  A    between atoms: C8_10  and  O7_13 
ROOT
HETATM    1  O7    D T 371       7.942   2.501  -6.115  1.00 19.13    -0.304 OA
ENDROOT
BRANCH   1   2
HETATM    2  C5    D T 371       9.099   2.285  -5.414  1.00 24.01     0.125 A 
HETATM    3  C6    D T 371      10.387   2.093  -6.126  1.00 25.08     0.154 A 
HETATM    4  C1    D T 371      11.540   1.876  -5.384  1.00 24.96     0.041 A 
HETATM    5  O17   D T 371      10.437   2.130  -7.486  1.00 32.11    -0.188 OA
HETATM    6  C2    D T 371      11.477   1.840  -3.995  1.00 25.04     0.060 A 
HETATM    7  C3    D T 371      10.267   2.020  -3.328  1.00 27.50     0.014 A 
HETATM    8 CL14   D T 371      12.976   1.559  -3.047  1.00 23.09    -0.082 Cl
HETATM    9  C4    D T 371       9.084   2.241  -4.027  1.00 24.93     0.028 A 
ENDBRANCH   1   2
BRANCH   1  10
HETATM   10  C8    D T 371       7.926   2.342  -7.476  1.00 19.85     0.111 A 
HETATM   11  C9    D T 371       7.807   0.988  -8.075  1.00 17.43     0.081 A 
HETATM   12  C10   D T 371       7.794   0.863  -9.457  1.00 16.58     0.025 A 
HETATM   13 CL16   D T 371       7.683  -0.464  -7.026  1.00 28.15    -0.080 Cl
HETATM   14  C11   D T 371       7.891   1.995 -10.260  1.00 19.66     0.059 A 
HETATM   15  C12   D T 371       8.002   3.264  -9.696  1.00 21.08     0.013 A 
HETATM   16 CL15   D T 371       7.872   1.819 -12.046  1.00 21.08    -0.082 Cl
HETATM   17  C13   D T 371       8.019   3.442  -8.316  1.00 20.62     0.026 A 
ENDBRANCH   1  10
TORSDOF 2
