REMARK  2 active torsions:
REMARK  status: ('A' for Active; 'I' for Inactive)
REMARK    1  A    between atoms: C5_4  and  O7_13 
REMARK    2  A    between atoms: C8_10  and  O7_13 
ROOT
HETATM    1  O7    D T 371       6.326   2.911  -7.073  1.00 19.13    -0.304 OA
ENDROOT
BRANCH   1   2
HETATM    2  C5    D T 371       7.570   2.963  -6.501  1.00 24.01     0.125 A 
HETATM    3  C6    D T 371       8.791   2.919  -7.343  1.00 25.08     0.154 A 
HETATM    4  C1    D T 371      10.035   2.974  -6.730  1.00 24.96     0.041 A 
HETATM    5  O17   D T 371       8.692   2.828  -8.699  1.00 32.11    -0.188 OA
HETATM    6  C2    D T 371      10.124   3.067  -5.345  1.00 25.04     0.060 A 
HETATM    7  C3    D T 371       8.978   3.108  -4.555  1.00 27.50     0.014 A 
HETATM    8 CL14   D T 371      11.739   3.137  -4.564  1.00 23.09    -0.082 Cl
HETATM    9  C4    D T 371       7.708   3.057  -5.123  1.00 24.93     0.028 A 
ENDBRANCH   1   2
BRANCH   1  10
HETATM   10  C8    D T 371       6.198   2.616  -8.405  1.00 19.85     0.111 A 
HETATM   11  C9    D T 371       6.260   1.209  -8.874  1.00 17.43     0.081 A 
HETATM   12  C10   D T 371       6.125   0.945 -10.230  1.00 16.58     0.025 A 
HETATM   13 CL16   D T 371       6.505  -0.131  -7.705  1.00 28.15    -0.080 Cl
HETATM   14  C11   D T 371       5.935   1.992 -11.128  1.00 19.66     0.059 A 
HETATM   15  C12   D T 371       5.878   3.312 -10.685  1.00 21.08     0.013 A 
HETATM   16 CL15   D T 371       5.763   1.638 -12.879  1.00 21.08    -0.082 Cl
HETATM   17  C13   D T 371       6.006   3.628  -9.336  1.00 20.62     0.026 A 
ENDBRANCH   1  10
TORSDOF 2
