REMARK  2 active torsions:
REMARK  status: ('A' for Active; 'I' for Inactive)
REMARK    1  A    between atoms: C5_4  and  O7_13 
REMARK    2  A    between atoms: C8_10  and  O7_13 
ROOT
HETATM    1  O7    D T 371       7.654   2.249  -6.442  1.00 19.13    -0.304 OA
ENDROOT
BRANCH   1   2
HETATM    2  C5    D T 371       8.828   2.150  -5.742  1.00 24.01     0.125 A 
HETATM    3  C6    D T 371      10.117   1.964  -6.452  1.00 25.08     0.154 A 
HETATM    4  C1    D T 371      11.286   1.868  -5.711  1.00 24.96     0.041 A 
HETATM    5  O17   D T 371      10.152   1.891  -7.812  1.00 32.11    -0.188 OA
HETATM    6  C2    D T 371      11.238   1.944  -4.323  1.00 25.04     0.060 A 
HETATM    7  C3    D T 371      10.028   2.118  -3.657  1.00 27.50     0.014 A 
HETATM    8 CL14   D T 371      12.759   1.818  -3.375  1.00 23.09    -0.082 Cl
HETATM    9  C4    D T 371       8.828   2.221  -4.355  1.00 24.93     0.028 A 
ENDBRANCH   1   2
BRANCH   1  10
HETATM   10  C8    D T 371       7.634   1.976  -7.785  1.00 19.85     0.111 A 
HETATM   11  C9    D T 371       7.579   0.574  -8.268  1.00 17.43     0.081 A 
HETATM   12  C10   D T 371       7.559   0.333  -9.635  1.00 16.58     0.025 A 
HETATM   13 CL16   D T 371       7.539  -0.791  -7.102  1.00 28.15    -0.080 Cl
HETATM   14  C11   D T 371       7.590   1.399 -10.530  1.00 19.66     0.059 A 
HETATM   15  C12   D T 371       7.642   2.714 -10.075  1.00 21.08     0.013 A 
HETATM   16 CL15   D T 371       7.564   1.074 -12.295  1.00 21.08    -0.082 Cl
HETATM   17  C13   D T 371       7.663   3.007  -8.714  1.00 20.62     0.026 A 
ENDBRANCH   1  10
TORSDOF 2
