REMARK  7 active torsions:
REMARK  status: ('A' for Active; 'I' for Inactive)
REMARK    1  A    between atoms: N3_2  and  C20_12 
REMARK    2  A    between atoms: C4_3  and  C5_4 
REMARK    3  A    between atoms: C13_9  and  N2_29 
REMARK    4  A    between atoms: C17_11  and  C19_33 
REMARK    5  A    between atoms: C20_12  and  C16_31 
REMARK    6  A    between atoms: C2_23  and  C3_24 
REMARK    7  A    between atoms: C9_25  and  C12_27 
REMARK       I    between atoms: C12_27  and  N2_29 
ROOT
HETATM    1  C12   D T   1      -5.937   6.354  -1.214  1.00  8.81     0.275 C 
HETATM    2  O1    D T   1      -6.145   5.260  -0.678  1.00 13.93    -0.266 OA
HETATM    3  N2    D T   1      -5.452   7.447  -0.558  1.00 10.31    -0.208 NA
ENDROOT
BRANCH   1   4
HETATM    4  C9    D T   1      -6.226   6.518  -2.661  1.00 12.21     0.037 A 
HETATM    5  C8    D T   1      -5.982   7.752  -3.386  1.00 10.40     0.036 A 
HETATM    6  C7    D T   1      -6.293   7.822  -4.810  1.00  7.63     0.028 A 
HETATM    7  C6    D T   1      -6.829   6.690  -5.481  1.00  7.91    -0.036 A 
HETATM    8  C5    D T   1      -7.068   5.464  -4.743  1.00 10.18     0.034 A 
HETATM    9  C11   D T   1      -7.135   6.794  -6.982  1.00  9.41     0.027 C 
HETATM   10  C10   D T   1      -6.768   5.391  -3.364  1.00 11.17     0.008 A 
BRANCH   8  11
HETATM   11  C4    D T   1      -7.607   4.262  -5.360  1.00 10.71    -0.059 C 
HETATM   12  C3    D T   1      -7.980   3.241  -5.870  1.00 12.15    -0.039 C 
BRANCH  12  13
HETATM   13  C2    D T   1      -8.358   2.026  -6.458  1.00 14.46     0.145 A 
HETATM   14  N82   D T   1      -9.626   1.523  -6.514  1.00 14.03    -0.203 N 
HETATM   15  N81   D T   1     -10.764   2.097  -6.011  1.00 15.71    -0.162 NA
HETATM   16  C84   D T   1      -9.491   0.275  -7.202  1.00 14.58     0.165 A 
HETATM   17  C83   D T   1     -11.860   1.351  -6.220  1.00 17.09     0.121 A 
HETATM   18  C82   D T   1     -11.888   0.084  -6.893  1.00 16.91     0.026 A 
HETATM   19  C81   D T   1     -10.699  -0.451  -7.383  1.00 15.47     0.041 A 
HETATM   20  N1    D T   1      -8.227   0.049  -7.533  1.00 17.79    -0.223 NA
HETATM   21  C1    D T   1      -7.518   1.144  -7.064  1.00 15.62     0.128 A 
ENDBRANCH  12  13
ENDBRANCH   8  11
ENDBRANCH   1   4
BRANCH   3  22
HETATM   22  C13   D T   1      -4.764   7.441   0.697  1.00  8.39     0.085 A 
HETATM   23  C14   D T   1      -4.465   8.687   1.288  1.00 14.59     0.019 A 
HETATM   24  C15   D T   1      -3.787   8.751   2.539  1.00 11.91    -0.001 A 
HETATM   25  C16   D T   1      -3.397   7.570   3.229  1.00 12.96     0.015 A 
HETATM   26  C17   D T   1      -3.695   6.273   2.635  1.00 14.62     0.071 A 
HETATM   27  C18   D T   1      -4.377   6.238   1.376  1.00 11.52     0.023 A 
BRANCH  25  28
HETATM   28  C20   D T   1      -2.679   7.732   4.578  1.00 11.54     0.277 C 
BRANCH  28  29
HETATM   29  N3    D T   1      -3.291   8.729   5.436  1.00 12.77     0.146 N 
HETATM   30  C21   D T   1      -4.667   8.394   5.873  1.00  9.68     0.286 C 
HETATM   31  C22   D T   1      -5.284   9.581   6.658  1.00 12.27     0.286 C 
HETATM   32  N4    D T   1      -4.431   9.969   7.814  1.00 14.63     0.143 N 
HETATM   33  C23   D T   1      -3.008  10.189   7.415  1.00 13.23     0.286 C 
HETATM   34  C25   D T   1      -4.979  11.149   8.493  1.00 14.49     0.285 C 
HETATM   35  C24   D T   1      -2.440   8.989   6.630  1.00 15.42     0.286 C 
ENDBRANCH  28  29
ENDBRANCH  25  28
BRANCH  26  36
HETATM   36  C19   D T   1      -3.321   4.958   3.299  1.00 14.58     0.419 C 
HETATM   37  F1    D T   1      -4.009   4.818   4.422  1.00 18.20    -0.166 F 
HETATM   38  F2    D T   1      -3.608   3.908   2.538  1.00 18.68    -0.166 F 
HETATM   39  F3    D T   1      -1.992   4.942   3.548  1.00 14.12    -0.166 F 
ENDBRANCH  26  36
ENDBRANCH   3  22
TORSDOF 7
