REMARK  7 active torsions:
REMARK  status: ('A' for Active; 'I' for Inactive)
REMARK    1  A    between atoms: N3_2  and  C20_12 
REMARK    2  A    between atoms: C4_3  and  C5_4 
REMARK    3  A    between atoms: C13_9  and  N2_29 
REMARK    4  A    between atoms: C17_11  and  C19_33 
REMARK    5  A    between atoms: C20_12  and  C16_31 
REMARK    6  A    between atoms: C2_23  and  C3_24 
REMARK    7  A    between atoms: C9_25  and  C12_27 
REMARK       I    between atoms: C12_27  and  N2_29 
ROOT
HETATM    1  C12   D T   1       2.933  -3.240  -7.794  1.00  8.81     0.275 C 
HETATM    2  O1    D T   1       2.594  -2.539  -6.834  1.00 13.93    -0.266 OA
HETATM    3  N2    D T   1       2.354  -4.434  -8.111  1.00 10.31    -0.208 NA
ENDROOT
BRANCH   1   4
HETATM    4  C9    D T   1       4.038  -2.780  -8.673  1.00 12.21     0.037 A 
HETATM    5  C8    D T   1       4.482  -3.516  -9.842  1.00 10.40     0.036 A 
HETATM    6  C7    D T   1       5.575  -2.985 -10.651  1.00  7.63     0.028 A 
HETATM    7  C6    D T   1       6.197  -1.758 -10.297  1.00  7.91    -0.036 A 
HETATM    8  C5    D T   1       5.741  -1.034  -9.125  1.00 10.18     0.034 A 
HETATM    9  C11   D T   1       7.337  -1.223 -11.176  1.00  9.41     0.027 C 
HETATM   10  C10   D T   1       4.684  -1.543  -8.338  1.00 11.17     0.008 A 
BRANCH   8  11
HETATM   11  C4    D T   1       6.321   0.232  -8.702  1.00 10.71    -0.059 C 
HETATM   12  C3    D T   1       6.739   1.311  -8.384  1.00 12.15    -0.039 C 
BRANCH  12  13
HETATM   13  C2    D T   1       7.172   2.597  -8.032  1.00 14.46     0.145 A 
HETATM   14  N82   D T   1       8.121   2.895  -7.097  1.00 14.03    -0.203 N 
HETATM   15  N81   D T   1       8.827   2.008  -6.327  1.00 15.71    -0.162 NA
HETATM   16  C84   D T   1       8.201   4.323  -7.103  1.00 14.58     0.165 A 
HETATM   17  C83   D T   1       9.688   2.612  -5.493  1.00 17.09     0.121 A 
HETATM   18  C82   D T   1       9.885   4.029  -5.384  1.00 16.91     0.026 A 
HETATM   19  C81   D T   1       9.137   4.883  -6.193  1.00 15.47     0.041 A 
HETATM   20  N1    D T   1       7.355   4.843  -7.984  1.00 17.79    -0.223 NA
HETATM   21  C1    D T   1       6.709   3.761  -8.561  1.00 15.62     0.128 A 
ENDBRANCH  12  13
ENDBRANCH   8  11
ENDBRANCH   1   4
BRANCH   3  22
HETATM   22  C13   D T   1       1.073  -4.893  -7.668  1.00  8.39     0.085 A 
HETATM   23  C14   D T   1       0.706  -6.219  -7.985  1.00 14.59     0.019 A 
HETATM   24  C15   D T   1      -0.553  -6.740  -7.569  1.00 11.91    -0.001 A 
HETATM   25  C16   D T   1      -1.471  -5.949  -6.824  1.00 12.96     0.015 A 
HETATM   26  C17   D T   1      -1.111  -4.578  -6.489  1.00 14.62     0.071 A 
HETATM   27  C18   D T   1       0.161  -4.079  -6.920  1.00 11.52     0.023 A 
BRANCH  25  28
HETATM   28  C20   D T   1      -2.801  -6.597  -6.409  1.00 11.54     0.277 C 
BRANCH  28  29
HETATM   29  N3    D T   1      -2.647  -7.943  -5.895  1.00 12.77     0.146 N 
HETATM   30  C21   D T   1      -1.871  -8.029  -4.633  1.00  9.68     0.286 C 
HETATM   31  C22   D T   1      -1.637  -9.513  -4.248  1.00 12.27     0.286 C 
HETATM   32  N4    D T   1      -2.922 -10.255  -4.141  1.00 14.63     0.143 N 
HETATM   33  C23   D T   1      -3.777 -10.079  -5.354  1.00 13.23     0.286 C 
HETATM   34  C25   D T   1      -2.682 -11.676  -3.865  1.00 14.49     0.285 C 
HETATM   35  C24   D T   1      -3.974  -8.590  -5.705  1.00 15.42     0.286 C 
ENDBRANCH  28  29
ENDBRANCH  25  28
BRANCH  26  36
HETATM   36  C19   D T   1      -2.024  -3.659  -5.693  1.00 14.58     0.419 C 
HETATM   37  F1    D T   1      -2.162  -4.129  -4.463  1.00 18.20    -0.166 F 
HETATM   38  F2    D T   1      -1.533  -2.430  -5.583  1.00 18.68    -0.166 F 
HETATM   39  F3    D T   1      -3.225  -3.575  -6.309  1.00 14.12    -0.166 F 
ENDBRANCH  26  36
ENDBRANCH   3  22
TORSDOF 7
