REMARK  7 active torsions:
REMARK  status: ('A' for Active; 'I' for Inactive)
REMARK    1  A    between atoms: N3_2  and  C20_12 
REMARK    2  A    between atoms: C4_3  and  C5_4 
REMARK    3  A    between atoms: C13_9  and  N2_29 
REMARK    4  A    between atoms: C17_11  and  C19_33 
REMARK    5  A    between atoms: C20_12  and  C16_31 
REMARK    6  A    between atoms: C2_23  and  C3_24 
REMARK    7  A    between atoms: C9_25  and  C12_27 
REMARK       I    between atoms: C12_27  and  N2_29 
ROOT
HETATM    1  C12   D T   1       5.341  -3.848  -5.358  1.00  8.81     0.275 C 
HETATM    2  O1    D T   1       4.459  -3.172  -4.817  1.00 13.93    -0.266 OA
HETATM    3  N2    D T   1       5.779  -5.051  -4.888  1.00 10.31    -0.208 NA
ENDROOT
BRANCH   1   4
HETATM    4  C9    D T   1       5.983  -3.342  -6.598  1.00 12.21     0.037 A 
HETATM    5  C8    D T   1       7.002  -4.080  -7.324  1.00 10.40     0.036 A 
HETATM    6  C7    D T   1       7.575  -3.506  -8.537  1.00  7.63     0.028 A 
HETATM    7  C6    D T   1       7.138  -2.237  -9.004  1.00  7.91    -0.036 A 
HETATM    8  C5    D T   1       6.120  -1.512  -8.267  1.00 10.18     0.034 A 
HETATM    9  C11   D T   1       7.756  -1.668 -10.289  1.00  9.41     0.027 C 
HETATM   10  C10   D T   1       5.561  -2.063  -7.092  1.00 11.17     0.008 A 
BRANCH   8  11
HETATM   11  C4    D T   1       5.616  -0.213  -8.685  1.00 10.71    -0.059 C 
HETATM   12  C3    D T   1       5.138   0.823  -9.057  1.00 12.15    -0.039 C 
BRANCH  12  13
HETATM   13  C2    D T   1       4.527   2.002  -9.506  1.00 14.46     0.145 A 
HETATM   14  N82   D T   1       4.848   3.270  -9.117  1.00 14.03    -0.203 N 
HETATM   15  N81   D T   1       5.817   3.637  -8.220  1.00 15.71    -0.162 NA
HETATM   16  C84   D T   1       3.949   4.112  -9.844  1.00 14.58     0.165 A 
HETATM   17  C83   D T   1       5.887   4.965  -8.042  1.00 17.09     0.121 A 
HETATM   18  C82   D T   1       5.060   5.937  -8.697  1.00 16.91     0.026 A 
HETATM   19  C81   D T   1       4.090   5.505  -9.600  1.00 15.47     0.041 A 
HETATM   20  N1    D T   1       3.144   3.394 -10.617  1.00 17.79    -0.223 NA
HETATM   21  C1    D T   1       3.505   2.073 -10.401  1.00 15.62     0.128 A 
ENDBRANCH  12  13
ENDBRANCH   8  11
ENDBRANCH   1   4
BRANCH   3  22
HETATM   22  C13   D T   1       5.086  -5.899  -3.967  1.00  8.39     0.085 A 
HETATM   23  C14   D T   1       5.766  -7.039  -3.485  1.00 14.59     0.019 A 
HETATM   24  C15   D T   1       5.135  -7.921  -2.561  1.00 11.91    -0.001 A 
HETATM   25  C16   D T   1       3.813  -7.681  -2.095  1.00 12.96     0.015 A 
HETATM   26  C17   D T   1       3.094  -6.511  -2.582  1.00 14.62     0.071 A 
HETATM   27  C18   D T   1       3.752  -5.641  -3.510  1.00 11.52     0.023 A 
BRANCH  25  28
HETATM   28  C20   D T   1       3.215  -8.680  -1.092  1.00 11.54     0.277 C 
BRANCH  28  29
HETATM   29  N3    D T   1       4.139  -9.059  -0.041  1.00 12.77     0.146 N 
HETATM   30  C21   D T   1       4.536  -7.944   0.853  1.00  9.68     0.286 C 
HETATM   31  C22   D T   1       5.632  -8.416   1.843  1.00 12.27     0.286 C 
HETATM   32  N4    D T   1       5.184  -9.600   2.626  1.00 14.63     0.143 N 
HETATM   33  C23   D T   1       4.662 -10.690   1.747  1.00 13.23     0.286 C 
HETATM   34  C25   D T   1       6.263 -10.090   3.492  1.00 14.49     0.285 C 
HETATM   35  C24   D T   1       3.582 -10.173   0.773  1.00 15.42     0.286 C 
ENDBRANCH  28  29
ENDBRANCH  25  28
BRANCH  26  36
HETATM   36  C19   D T   1       1.680  -6.170  -2.138  1.00 14.58     0.419 C 
HETATM   37  F1    D T   1       1.682  -5.874  -0.847  1.00 18.20    -0.166 F 
HETATM   38  F2    D T   1       1.192  -5.113  -2.776  1.00 18.68    -0.166 F 
HETATM   39  F3    D T   1       0.866  -7.221  -2.386  1.00 14.12    -0.166 F 
ENDBRANCH  26  36
ENDBRANCH   3  22
TORSDOF 7
