REMARK  7 active torsions:
REMARK  status: ('A' for Active; 'I' for Inactive)
REMARK    1  A    between atoms: N3_2  and  C20_12 
REMARK    2  A    between atoms: C4_3  and  C5_4 
REMARK    3  A    between atoms: C13_9  and  N2_29 
REMARK    4  A    between atoms: C17_11  and  C19_33 
REMARK    5  A    between atoms: C20_12  and  C16_31 
REMARK    6  A    between atoms: C2_23  and  C3_24 
REMARK    7  A    between atoms: C9_25  and  C12_27 
REMARK       I    between atoms: C12_27  and  N2_29 
ROOT
HETATM    1  C12   D T   1      -3.353   6.061   2.961  1.00  8.81     0.275 C 
HETATM    2  O1    D T   1      -2.549   5.217   2.549  1.00 13.93    -0.266 OA
HETATM    3  N2    D T   1      -4.250   6.714   2.168  1.00 10.31    -0.208 NA
ENDROOT
BRANCH   1   4
HETATM    4  C9    D T   1      -3.362   6.409   4.405  1.00 12.21     0.037 A 
HETATM    5  C8    D T   1      -4.290   7.361   4.988  1.00 10.40     0.036 A 
HETATM    6  C7    D T   1      -4.229   7.638   6.419  1.00  7.63     0.028 A 
HETATM    7  C6    D T   1      -3.270   6.979   7.235  1.00  7.91    -0.036 A 
HETATM    8  C5    D T   1      -2.349   6.030   6.638  1.00 10.18     0.034 A 
HETATM    9  C11   D T   1      -3.240   7.287   8.740  1.00  9.41     0.027 C 
HETATM   10  C10   D T   1      -2.404   5.758   5.253  1.00 11.17     0.008 A 
BRANCH   8  11
HETATM   11  C4    D T   1      -1.345   5.311   7.407  1.00 10.71    -0.059 C 
HETATM   12  C3    D T   1      -0.562   4.657   8.039  1.00 12.15    -0.039 C 
BRANCH  12  13
HETATM   13  C2    D T   1       0.315   3.842   8.767  1.00 14.46     0.145 A 
HETATM   14  N82   D T   1       1.644   4.077   8.972  1.00 14.03    -0.203 N 
HETATM   15  N81   D T   1       2.374   5.140   8.510  1.00 15.71    -0.162 NA
HETATM   16  C84   D T   1       2.091   2.970   9.761  1.00 14.58     0.165 A 
HETATM   17  C83   D T   1       3.664   5.085   8.876  1.00 17.09     0.121 A 
HETATM   18  C82   D T   1       4.261   4.047   9.665  1.00 16.91     0.026 A 
HETATM   19  C81   D T   1       3.469   2.989  10.107  1.00 15.47     0.041 A 
HETATM   20  N1    D T   1       1.095   2.131  10.011  1.00 17.79    -0.223 NA
HETATM   21  C1    D T   1      -0.016   2.676   9.385  1.00 15.62     0.128 A 
ENDBRANCH  12  13
ENDBRANCH   8  11
ENDBRANCH   1   4
BRANCH   3  22
HETATM   22  C13   D T   1      -4.683   6.301   0.868  1.00  8.39     0.085 A 
HETATM   23  C14   D T   1      -5.510   7.184   0.140  1.00 14.59     0.019 A 
HETATM   24  C15   D T   1      -5.971   6.835  -1.162  1.00 11.91    -0.001 A 
HETATM   25  C16   D T   1      -5.613   5.598  -1.767  1.00 12.96     0.015 A 
HETATM   26  C17   D T   1      -4.762   4.673  -1.030  1.00 14.62     0.071 A 
HETATM   27  C18   D T   1      -4.313   5.048   0.277  1.00 11.52     0.023 A 
BRANCH  25  28
HETATM   28  C20   D T   1      -6.148   5.310  -3.178  1.00 11.54     0.277 C 
BRANCH  28  29
HETATM   29  N3    D T   1      -6.041   6.445  -4.074  1.00 12.77     0.146 N 
HETATM   30  C21   D T   1      -4.648   6.861  -4.366  1.00  9.68     0.286 C 
HETATM   31  C22   D T   1      -4.643   8.164  -5.207  1.00 12.27     0.286 C 
HETATM   32  N4    D T   1      -5.431   8.004  -6.460  1.00 14.63     0.143 N 
HETATM   33  C23   D T   1      -6.800   7.465  -6.198  1.00 13.23     0.286 C 
HETATM   34  C25   D T   1      -5.493   9.269  -7.200  1.00 14.49     0.285 C 
HETATM   35  C24   D T   1      -6.756   6.176  -5.351  1.00 15.42     0.286 C 
ENDBRANCH  28  29
ENDBRANCH  25  28
BRANCH  26  36
HETATM   36  C19   D T   1      -4.325   3.330  -1.595  1.00 14.58     0.419 C 
HETATM   37  F1    D T   1      -3.537   3.527  -2.641  1.00 18.20    -0.166 F 
HETATM   38  F2    D T   1      -3.629   2.615  -0.718  1.00 18.68    -0.166 F 
HETATM   39  F3    D T   1      -5.416   2.614  -1.947  1.00 14.12    -0.166 F 
ENDBRANCH  26  36
ENDBRANCH   3  22
TORSDOF 7
