REMARK  7 active torsions:
REMARK  status: ('A' for Active; 'I' for Inactive)
REMARK    1  A    between atoms: N3_2  and  C20_12 
REMARK    2  A    between atoms: C4_3  and  C5_4 
REMARK    3  A    between atoms: C13_9  and  N2_29 
REMARK    4  A    between atoms: C17_11  and  C19_33 
REMARK    5  A    between atoms: C20_12  and  C16_31 
REMARK    6  A    between atoms: C2_23  and  C3_24 
REMARK    7  A    between atoms: C9_25  and  C12_27 
REMARK       I    between atoms: C12_27  and  N2_29 
ROOT
HETATM    1  C12   D T   1      -1.928   0.756  -3.249  1.00  8.81     0.275 C 
HETATM    2  O1    D T   1      -2.346   0.061  -2.316  1.00 13.93    -0.266 OA
HETATM    3  N2    D T   1      -1.726   2.102  -3.170  1.00 10.31    -0.208 NA
ENDROOT
BRANCH   1   4
HETATM    4  C9    D T   1      -1.623   0.111  -4.552  1.00 12.21     0.037 A 
HETATM    5  C8    D T   1      -1.097   0.836  -5.694  1.00 10.40     0.036 A 
HETATM    6  C7    D T   1      -0.823   0.118  -6.935  1.00  7.63     0.028 A 
HETATM    7  C6    D T   1      -1.067  -1.279  -7.022  1.00  7.91    -0.036 A 
HETATM    8  C5    D T   1      -1.593  -1.990  -5.872  1.00 10.18     0.034 A 
HETATM    9  C11   D T   1      -0.757  -2.005  -8.340  1.00  9.41     0.027 C 
HETATM   10  C10   D T   1      -1.861  -1.300  -4.668  1.00 11.17     0.008 A 
BRANCH   8  11
HETATM   11  C4    D T   1      -1.862  -3.419  -5.881  1.00 10.71    -0.059 C 
HETATM   12  C3    D T   1      -2.019  -4.609  -5.849  1.00 12.15    -0.039 C 
BRANCH  12  13
HETATM   13  C2    D T   1      -2.152  -6.002  -5.774  1.00 14.46     0.145 A 
HETATM   14  N82   D T   1      -3.302  -6.709  -5.974  1.00 14.03    -0.203 N 
HETATM   15  N81   D T   1      -4.539  -6.204  -6.280  1.00 15.71    -0.162 NA
HETATM   16  C84   D T   1      -2.925  -8.077  -5.785  1.00 14.58     0.165 A 
HETATM   17  C83   D T   1      -5.474  -7.158  -6.408  1.00 17.09     0.121 A 
HETATM   18  C82   D T   1      -5.253  -8.566  -6.252  1.00 16.91     0.026 A 
HETATM   19  C81   D T   1      -3.974  -9.022  -5.940  1.00 15.47     0.041 A 
HETATM   20  N1    D T   1      -1.635  -8.178  -5.492  1.00 17.79    -0.223 NA
HETATM   21  C1    D T   1      -1.153  -6.878  -5.482  1.00 15.62     0.128 A 
ENDBRANCH  12  13
ENDBRANCH   8  11
ENDBRANCH   1   4
BRANCH   3  22
HETATM   22  C13   D T   1      -1.586   2.864  -1.966  1.00  8.39     0.085 A 
HETATM   23  C14   D T   1      -1.527   4.270  -2.083  1.00 14.59     0.019 A 
HETATM   24  C15   D T   1      -1.395   5.087  -0.923  1.00 11.91    -0.001 A 
HETATM   25  C16   D T   1      -1.323   4.517   0.378  1.00 12.96     0.015 A 
HETATM   26  C17   D T   1      -1.381   3.068   0.519  1.00 14.62     0.071 A 
HETATM   27  C18   D T   1      -1.514   2.270  -0.664  1.00 11.52     0.023 A 
BRANCH  25  28
HETATM   28  C20   D T   1      -1.190   5.474   1.573  1.00 11.54     0.277 C 
BRANCH  28  29
HETATM   29  N3    D T   1      -2.077   6.619   1.490  1.00 12.77     0.146 N 
HETATM   30  C21   D T   1      -3.519   6.279   1.543  1.00  9.68     0.286 C 
HETATM   31  C22   D T   1      -4.378   7.547   1.299  1.00 12.27     0.286 C 
HETATM   32  N4    D T   1      -4.043   8.624   2.270  1.00 14.63     0.143 N 
HETATM   33  C23   D T   1      -2.575   8.897   2.323  1.00 13.23     0.286 C 
HETATM   34  C25   D T   1      -4.798   9.847   1.971  1.00 14.49     0.285 C 
HETATM   35  C24   D T   1      -1.761   7.608   2.557  1.00 15.42     0.286 C 
ENDBRANCH  28  29
ENDBRANCH  25  28
BRANCH  26  36
HETATM   36  C19   D T   1      -1.315   2.369   1.867  1.00 14.58     0.419 C 
HETATM   37  F1    D T   1      -2.391   2.675   2.577  1.00 18.20    -0.166 F 
HETATM   38  F2    D T   1      -1.295   1.046   1.751  1.00 18.68    -0.166 F 
HETATM   39  F3    D T   1      -0.192   2.749   2.516  1.00 14.12    -0.166 F 
ENDBRANCH  26  36
ENDBRANCH   3  22
TORSDOF 7
