REMARK  7 active torsions:
REMARK  status: ('A' for Active; 'I' for Inactive)
REMARK    1  A    between atoms: N3_2  and  C20_12 
REMARK    2  A    between atoms: C4_3  and  C5_4 
REMARK    3  A    between atoms: C13_9  and  N2_29 
REMARK    4  A    between atoms: C17_11  and  C19_33 
REMARK    5  A    between atoms: C20_12  and  C16_31 
REMARK    6  A    between atoms: C2_23  and  C3_24 
REMARK    7  A    between atoms: C9_25  and  C12_27 
REMARK       I    between atoms: C12_27  and  N2_29 
ROOT
HETATM    1  C12   D T   1      -1.650  12.160  -2.021  1.00  8.81     0.275 C 
HETATM    2  O1    D T   1      -0.957  11.245  -2.480  1.00 13.93    -0.266 OA
HETATM    3  N2    D T   1      -2.702  12.727  -2.680  1.00 10.31    -0.208 NA
ENDROOT
BRANCH   1   4
HETATM    4  C9    D T   1      -1.340  12.698  -0.672  1.00 12.21     0.037 A 
HETATM    5  C8    D T   1      -2.117  13.746  -0.037  1.00 10.40     0.036 A 
HETATM    6  C7    D T   1      -1.741  14.211   1.295  1.00  7.63     0.028 A 
HETATM    7  C6    D T   1      -0.624  13.640   1.963  1.00  7.91    -0.036 A 
HETATM    8  C5    D T   1       0.143  12.594   1.314  1.00 10.18     0.034 A 
HETATM    9  C11   D T   1      -0.262  14.146   3.367  1.00  9.41     0.027 C 
HETATM   10  C10   D T   1      -0.217  12.140   0.025  1.00 11.17     0.008 A 
BRANCH   8  11
HETATM   11  C4    D T   1       1.293  11.955   1.935  1.00 10.71    -0.059 C 
HETATM   12  C3    D T   1       2.197  11.369   2.464  1.00 12.15    -0.039 C 
BRANCH  12  13
HETATM   13  C2    D T   1       3.215  10.633   3.086  1.00 14.46     0.145 A 
HETATM   14  N82   D T   1       4.556  10.855   2.960  1.00 14.03    -0.203 N 
HETATM   15  N81   D T   1       5.165  11.825   2.208  1.00 15.71    -0.162 NA
HETATM   16  C84   D T   1       5.169   9.852   3.776  1.00 14.58     0.165 A 
HETATM   17  C83   D T   1       6.503  11.782   2.285  1.00 17.09     0.121 A 
HETATM   18  C82   D T   1       7.262  10.842   3.059  1.00 16.91     0.026 A 
HETATM   19  C81   D T   1       6.589   9.876   3.804  1.00 15.47     0.041 A 
HETATM   20  N1    D T   1       4.253   9.083   4.351  1.00 17.79    -0.223 NA
HETATM   21  C1    D T   1       3.031   9.571   3.915  1.00 15.62     0.128 A 
ENDBRANCH  12  13
ENDBRANCH   8  11
ENDBRANCH   1   4
BRANCH   3  22
HETATM   22  C13   D T   1      -3.412  12.155  -3.784  1.00  8.39     0.085 A 
HETATM   23  C14   D T   1      -4.380  12.957  -4.427  1.00 14.59     0.019 A 
HETATM   24  C15   D T   1      -5.117  12.450  -5.535  1.00 11.91    -0.001 A 
HETATM   25  C16   D T   1      -4.901  11.133  -6.028  1.00 12.96     0.015 A 
HETATM   26  C17   D T   1      -3.907  10.291  -5.377  1.00 14.62     0.071 A 
HETATM   27  C18   D T   1      -3.180  10.824  -4.264  1.00 11.52     0.023 A 
BRANCH  25  28
HETATM   28  C20   D T   1      -5.735  10.674  -7.234  1.00 11.54     0.277 C 
BRANCH  28  29
HETATM   29  N3    D T   1      -5.830  11.675  -8.279  1.00 12.77     0.146 N 
HETATM   30  C21   D T   1      -4.537  12.008  -8.924  1.00  9.68     0.286 C 
HETATM   31  C22   D T   1      -4.720  13.185  -9.917  1.00 12.27     0.286 C 
HETATM   32  N4    D T   1      -5.766  12.882 -10.931  1.00 14.63     0.143 N 
HETATM   33  C23   D T   1      -7.042  12.422 -10.304  1.00 13.23     0.286 C 
HETATM   34  C25   D T   1      -5.992  14.037 -11.807  1.00 14.49     0.285 C 
HETATM   35  C24   D T   1      -6.810  11.258  -9.319  1.00 15.42     0.286 C 
ENDBRANCH  28  29
ENDBRANCH  25  28
BRANCH  26  36
HETATM   36  C19   D T   1      -3.604   8.872  -5.834  1.00 14.58     0.419 C 
HETATM   37  F1    D T   1      -3.067   8.904  -7.044  1.00 18.20    -0.166 F 
HETATM   38  F2    D T   1      -2.730   8.262  -5.041  1.00 18.68    -0.166 F 
HETATM   39  F3    D T   1      -4.745   8.147  -5.836  1.00 14.12    -0.166 F 
ENDBRANCH  26  36
ENDBRANCH   3  22
TORSDOF 7
