REMARK  5 active torsions:
REMARK  status: ('A' for Active; 'I' for Inactive)
REMARK    1  A    between atoms: C3_3  and  C48_30 
REMARK    2  A    between atoms: C7_6  and  C10_8 
REMARK    3  A    between atoms: C13_11  and  C24_18 
REMARK    4  A    between atoms: N27_20  and  C31_23 
REMARK    5  A    between atoms: C48_30  and  N51_31 
ROOT
HETATM    1  C10   D T   1      -4.191  -2.375   9.496  1.00 15.48     0.019 A 
HETATM    2  C11   D T   1      -4.697  -3.638   9.858  1.00 17.77     0.099 A 
HETATM    3  N12   D T   1      -3.868  -4.663  10.233  1.00 14.42    -0.242 NA
HETATM    4  C13   D T   1      -4.383  -5.870  10.583  1.00 16.70     0.103 A 
HETATM    5  C14   D T   1      -5.769  -6.054  10.544  1.00 16.81     0.118 A 
HETATM    6  N16   D T   1      -6.594  -5.059  10.164  1.00 18.92    -0.241 NA
HETATM    7  C17   D T   1      -6.090  -3.851   9.827  1.00 19.63     0.099 A 
HETATM    8  C18   D T   1      -6.972  -2.827   9.443  1.00 16.22     0.021 A 
HETATM    9  C20   D T   1      -6.463  -1.576   9.077  1.00 16.47     0.002 A 
HETATM   10  C22   D T   1      -5.077  -1.346   9.112  1.00 11.45     0.002 A 
ENDROOT
BRANCH   1  11
HETATM   11  C7    D T   1      -2.733  -2.070   9.462  1.00 15.00     0.006 A 
HETATM   12  C5    D T   1      -2.255  -1.462   8.293  1.00 16.13     0.030 A 
HETATM   13  C4    D T   1      -0.901  -1.146   8.150  1.00 20.46     0.140 A 
HETATM   14  C3    D T   1      -0.007  -1.432   9.195  1.00 19.71     0.055 A 
HETATM   15  F47   D T   1      -0.493  -0.571   7.009  1.00 18.81    -0.204 F 
HETATM   16  C2    D T   1      -0.489  -2.057  10.363  1.00 20.82     0.140 A 
HETATM   17  F1    D T   1       0.318  -2.346  11.385  1.00 22.79    -0.204 F 
HETATM   18  C8    D T   1      -1.846  -2.376  10.500  1.00 15.46     0.030 A 
BRANCH  14  19
HETATM   19  C48   D T   1       1.480  -1.056   9.058  1.00 20.25     0.129 C 
BRANCH  19  20
HETATM   20  N51   D T   1       1.707   0.347   9.563  1.00 24.07    -0.361 N 
HETATM   21  C52   D T   1       1.585   0.491  11.048  1.00 22.40     0.130 C 
HETATM   22  C55   D T   1       1.831   1.941  11.544  1.00 27.40     0.166 C 
HETATM   23  O58   D T   1       1.038   2.870  10.778  1.00 26.30    -0.350 OA
HETATM   24  C59   D T   1       1.403   2.849   9.385  1.00 25.21     0.166 C 
HETATM   25  C62   D T   1       1.062   1.456   8.788  1.00 22.22     0.130 C 
ENDBRANCH  19  20
ENDBRANCH  14  19
ENDBRANCH   1  11
BRANCH   4  26
HETATM   26  C24   D T   1      -3.438  -6.975  11.019  1.00 15.92     0.059 A 
HETATM   27  C25   D T   1      -3.695  -8.222  11.503  1.00 18.01     0.098 A 
HETATM   28  N27   D T   1      -2.535  -8.787  11.733  1.00 18.37    -0.251 N 
HETATM   29  N28   D T   1      -1.534  -7.931  11.425  1.00 18.72    -0.168 NA
HETATM   30  C29   D T   1      -1.983  -6.825  10.991  1.00 18.29     0.123 A 
BRANCH  28  31
HETATM   31  C31   D T   1      -2.207 -10.101  12.272  1.00 23.01     0.110 C 
HETATM   32  C33   D T   1      -2.494 -10.132  13.804  1.00 23.05     0.063 C 
HETATM   33  C36   D T   1      -2.166 -11.514  14.425  1.00 27.20     0.292 C 
HETATM   34  N39   D T   1      -2.872 -12.552  13.644  1.00 30.30     0.339 N 
HETATM   35  C41   D T   1      -2.445 -12.641  12.219  1.00 26.52     0.292 C 
HETATM   36  C44   D T   1      -2.811 -11.305  11.499  1.00 29.21     0.063 C 
ENDBRANCH  28  31
ENDBRANCH   4  26
TORSDOF 5
