REMARK  5 active torsions:
REMARK  status: ('A' for Active; 'I' for Inactive)
REMARK    1  A    between atoms: C3_3  and  C48_30 
REMARK    2  A    between atoms: C7_6  and  C10_8 
REMARK    3  A    between atoms: C13_11  and  C24_18 
REMARK    4  A    between atoms: N27_20  and  C31_23 
REMARK    5  A    between atoms: C48_30  and  N51_31 
ROOT
HETATM    1  C10   D T   1       3.422  11.164   1.682  1.00 15.48     0.019 A 
HETATM    2  C11   D T   1       4.098  10.488   2.716  1.00 17.77     0.099 A 
HETATM    3  N12   D T   1       5.457  10.575   2.863  1.00 14.42    -0.242 NA
HETATM    4  C13   D T   1       6.082   9.916   3.872  1.00 16.70     0.103 A 
HETATM    5  C14   D T   1       5.320   9.141   4.752  1.00 16.81     0.118 A 
HETATM    6  N16   D T   1       3.985   9.035   4.611  1.00 18.92    -0.241 NA
HETATM    7  C17   D T   1       3.354   9.698   3.616  1.00 19.63     0.099 A 
HETATM    8  C18   D T   1       1.959   9.579   3.496  1.00 16.22     0.021 A 
HETATM    9  C20   D T   1       1.294  10.248   2.462  1.00 16.47     0.002 A 
HETATM   10  C22   D T   1       2.021  11.046   1.563  1.00 11.45     0.002 A 
ENDROOT
BRANCH   1  11
HETATM   11  C7    D T   1       4.129  11.989   0.663  1.00 15.00     0.006 A 
HETATM   12  C5    D T   1       3.800  11.734  -0.676  1.00 16.13     0.030 A 
HETATM   13  C4    D T   1       4.414  12.441  -1.714  1.00 20.46     0.140 A 
HETATM   14  C3    D T   1       5.368  13.428  -1.412  1.00 19.71     0.055 A 
HETATM   15  F47   D T   1       4.069  12.155  -2.977  1.00 18.81    -0.204 F 
HETATM   16  C2    D T   1       5.705  13.671  -0.066  1.00 20.82     0.140 A 
HETATM   17  F1    D T   1       6.601  14.601   0.274  1.00 22.79    -0.204 F 
HETATM   18  C8    D T   1       5.091  12.957   0.971  1.00 15.46     0.030 A 
BRANCH  14  19
HETATM   19  C48   D T   1       6.024  14.234  -2.548  1.00 20.25     0.129 C 
BRANCH  19  20
HETATM   20  N51   D T   1       5.198  15.458  -2.857  1.00 24.07    -0.361 N 
HETATM   21  C52   D T   1       5.243  16.512  -1.793  1.00 22.40     0.130 C 
HETATM   22  C55   D T   1       4.393  17.764  -2.136  1.00 27.40     0.166 C 
HETATM   23  O58   D T   1       3.068  17.370  -2.544  1.00 26.30    -0.350 OA
HETATM   24  C59   D T   1       3.102  16.562  -3.736  1.00 25.21     0.166 C 
HETATM   25  C62   D T   1       3.832  15.226  -3.427  1.00 22.22     0.130 C 
ENDBRANCH  19  20
ENDBRANCH  14  19
ENDBRANCH   1  11
BRANCH   4  26
HETATM   26  C24   D T   1       7.586  10.057   4.022  1.00 15.92     0.059 A 
HETATM   27  C25   D T   1       8.430   9.590   4.985  1.00 18.01     0.098 A 
HETATM   28  N27   D T   1       9.636   9.982   4.657  1.00 18.37    -0.251 N 
HETATM   29  N28   D T   1       9.593  10.706   3.515  1.00 18.72    -0.168 NA
HETATM   30  C29   D T   1       8.409  10.799   3.067  1.00 18.29     0.123 A 
BRANCH  28  31
HETATM   31  C31   D T   1      10.915   9.792   5.330  1.00 23.01     0.110 C 
HETATM   32  C33   D T   1      10.991  10.704   6.593  1.00 23.05     0.063 C 
HETATM   33  C36   D T   1      12.333  10.532   7.349  1.00 27.20     0.292 C 
HETATM   34  N39   D T   1      12.534   9.092   7.616  1.00 30.30     0.339 N 
HETATM   35  C41   D T   1      12.654   8.253   6.390  1.00 26.52     0.292 C 
HETATM   36  C44   D T   1      11.306   8.313   5.604  1.00 29.21     0.063 C 
ENDBRANCH  28  31
ENDBRANCH   4  26
TORSDOF 5
