REMARK  5 active torsions:
REMARK  status: ('A' for Active; 'I' for Inactive)
REMARK    1  A    between atoms: C3_3  and  C48_30 
REMARK    2  A    between atoms: C7_6  and  C10_8 
REMARK    3  A    between atoms: C13_11  and  C24_18 
REMARK    4  A    between atoms: N27_20  and  C31_23 
REMARK    5  A    between atoms: C48_30  and  N51_31 
ROOT
HETATM    1  C10   D T   1      -9.203   2.437  -5.070  1.00 15.48     0.019 A 
HETATM    2  C11   D T   1      -9.243   1.420  -6.044  1.00 17.77     0.099 A 
HETATM    3  N12   D T   1     -10.397   0.738  -6.323  1.00 14.42    -0.242 NA
HETATM    4  C13   D T   1     -10.408  -0.235  -7.271  1.00 16.70     0.103 A 
HETATM    5  C14   D T   1      -9.223  -0.535  -7.950  1.00 16.81     0.118 A 
HETATM    6  N16   D T   1      -8.077   0.118  -7.675  1.00 18.92    -0.241 NA
HETATM    7  C17   D T   1      -8.061   1.096  -6.741  1.00 19.63     0.099 A 
HETATM    8  C18   D T   1      -6.856   1.770  -6.480  1.00 16.22     0.021 A 
HETATM    9  C20   D T   1      -6.822   2.774  -5.506  1.00 16.47     0.002 A 
HETATM   10  C22   D T   1      -7.994   3.114  -4.809  1.00 11.45     0.002 A 
ENDROOT
BRANCH   1  11
HETATM   11  C7    D T   1     -10.392   2.820  -4.257  1.00 15.00     0.006 A 
HETATM   12  C5    D T   1     -10.195   2.895  -2.871  1.00 16.13     0.030 A 
HETATM   13  C4    D T   1     -11.246   3.232  -2.013  1.00 20.46     0.140 A 
HETATM   14  C3    D T   1     -12.516   3.509  -2.547  1.00 19.71     0.055 A 
HETATM   15  F47   D T   1     -11.007   3.284  -0.695  1.00 18.81    -0.204 F 
HETATM   16  C2    D T   1     -12.713   3.418  -3.939  1.00 20.82     0.140 A 
HETATM   17  F1    D T   1     -13.898   3.675  -4.496  1.00 22.79    -0.204 F 
HETATM   18  C8    D T   1     -11.658   3.075  -4.795  1.00 15.46     0.030 A 
BRANCH  14  19
HETATM   19  C48   D T   1     -13.670   3.913  -1.611  1.00 20.25     0.129 C 
BRANCH  19  20
HETATM   20  N51   D T   1     -13.682   5.410  -1.422  1.00 24.07    -0.361 N 
HETATM   21  C52   D T   1     -14.109   6.177  -2.635  1.00 22.40     0.130 C 
HETATM   22  C55   D T   1     -14.122   7.713  -2.414  1.00 27.40     0.166 C 
HETATM   23  O58   D T   1     -12.874   8.142  -1.833  1.00 26.30    -0.350 OA
HETATM   24  C59   D T   1     -12.662   7.546  -0.539  1.00 25.21     0.166 C 
HETATM   25  C62   D T   1     -12.511   6.009  -0.703  1.00 22.22     0.130 C 
ENDBRANCH  19  20
ENDBRANCH  14  19
ENDBRANCH   1  11
BRANCH   4  26
HETATM   26  C24   D T   1     -11.711  -0.952  -7.574  1.00 15.92     0.059 A 
HETATM   27  C25   D T   1     -12.013  -1.879  -8.525  1.00 18.01     0.098 A 
HETATM   28  N27   D T   1     -13.277  -2.186  -8.371  1.00 18.37    -0.251 N 
HETATM   29  N28   D T   1     -13.807  -1.467  -7.354  1.00 18.72    -0.168 NA
HETATM   30  C29   D T   1     -12.941  -0.706  -6.822  1.00 18.29     0.123 A 
BRANCH  28  31
HETATM   31  C31   D T   1     -14.134  -3.099  -9.118  1.00 23.01     0.110 C 
HETATM   32  C33   D T   1     -14.481  -2.482 -10.508  1.00 23.05     0.063 C 
HETATM   33  C36   D T   1     -15.387  -3.420 -11.345  1.00 27.20     0.292 C 
HETATM   34  N39   D T   1     -14.748  -4.751 -11.404  1.00 30.30     0.339 N 
HETATM   35  C41   D T   1     -14.597  -5.417 -10.080  1.00 26.52     0.292 C 
HETATM   36  C44   D T   1     -13.631  -4.566  -9.195  1.00 29.21     0.063 C 
ENDBRANCH  28  31
ENDBRANCH   4  26
TORSDOF 5
