REMARK  5 active torsions:
REMARK  status: ('A' for Active; 'I' for Inactive)
REMARK    1  A    between atoms: C3_3  and  C48_30 
REMARK    2  A    between atoms: C7_6  and  C10_8 
REMARK    3  A    between atoms: C13_11  and  C24_18 
REMARK    4  A    between atoms: N27_20  and  C31_23 
REMARK    5  A    between atoms: C48_30  and  N51_31 
ROOT
HETATM    1  C10   D T   1       1.452   4.829   6.971  1.00 15.48     0.019 A 
HETATM    2  C11   D T   1       1.916   4.040   8.041  1.00 17.77     0.099 A 
HETATM    3  N12   D T   1       3.225   4.073   8.444  1.00 14.42    -0.242 NA
HETATM    4  C13   D T   1       3.644   3.305   9.483  1.00 16.70     0.103 A 
HETATM    5  C14   D T   1       2.722   2.475  10.128  1.00 16.81     0.118 A 
HETATM    6  N16   D T   1       1.435   2.422   9.734  1.00 18.92    -0.241 NA
HETATM    7  C17   D T   1       1.008   3.192   8.708  1.00 19.63     0.099 A 
HETATM    8  C18   D T   1      -0.341   3.127   8.322  1.00 16.22     0.021 A 
HETATM    9  C20   D T   1      -0.794   3.908   7.253  1.00 16.47     0.002 A 
HETATM   10  C22   D T   1       0.098   4.764   6.584  1.00 11.45     0.002 A 
ENDROOT
BRANCH   1  11
HETATM   11  C7    D T   1       2.347   5.724   6.184  1.00 15.00     0.006 A 
HETATM   12  C5    D T   1       2.270   5.604   4.789  1.00 16.13     0.030 A 
HETATM   13  C4    D T   1       3.075   6.385   3.955  1.00 20.46     0.140 A 
HETATM   14  C3    D T   1       3.967   7.312   4.521  1.00 19.71     0.055 A 
HETATM   15  F47   D T   1       2.968   6.228   2.628  1.00 18.81    -0.204 F 
HETATM   16  C2    D T   1       4.051   7.419   5.924  1.00 20.82     0.140 A 
HETATM   17  F1    D T   1       4.879   8.286   6.511  1.00 22.79    -0.204 F 
HETATM   18  C8    D T   1       3.246   6.630   6.756  1.00 15.46     0.030 A 
BRANCH  14  19
HETATM   19  C48   D T   1       4.833   8.199   3.609  1.00 20.25     0.129 C 
BRANCH  19  20
HETATM   20  N51   D T   1       4.094   9.471   3.273  1.00 24.07    -0.361 N 
HETATM   21  C52   D T   1       3.952  10.420   4.424  1.00 22.40     0.130 C 
HETATM   22  C55   D T   1       3.196  11.723   4.052  1.00 27.40     0.166 C 
HETATM   23  O58   D T   1       1.965  11.408   3.371  1.00 26.30    -0.350 OA
HETATM   24  C59   D T   1       2.211  10.713   2.134  1.00 25.21     0.166 C 
HETATM   25  C62   D T   1       2.855   9.333   2.441  1.00 22.22     0.130 C 
ENDBRANCH  19  20
ENDBRANCH  14  19
ENDBRANCH   1  11
BRANCH   4  26
HETATM   26  C24   D T   1       5.095   3.387   9.920  1.00 15.92     0.059 A 
HETATM   27  C25   D T   1       5.739   2.808  10.972  1.00 18.01     0.098 A 
HETATM   28  N27   D T   1       6.990   3.193  10.911  1.00 18.37    -0.251 N 
HETATM   29  N28   D T   1       7.169   4.021   9.856  1.00 18.72    -0.168 NA
HETATM   30  C29   D T   1       6.090   4.190   9.209  1.00 18.29     0.123 A 
BRANCH  28  31
HETATM   31  C31   D T   1       8.119   2.903  11.787  1.00 23.01     0.110 C 
HETATM   32  C33   D T   1       7.969   3.692  13.124  1.00 23.05     0.063 C 
HETATM   33  C36   D T   1       9.145   3.411  14.094  1.00 27.20     0.292 C 
HETATM   34  N39   D T   1       9.275   1.947  14.253  1.00 30.30     0.339 N 
HETATM   35  C41   D T   1       9.611   1.223  12.995  1.00 26.52     0.292 C 
HETATM   36  C44   D T   1       8.434   1.395  11.984  1.00 29.21     0.063 C 
ENDBRANCH  28  31
ENDBRANCH   4  26
TORSDOF 5
