REMARK  5 active torsions:
REMARK  status: ('A' for Active; 'I' for Inactive)
REMARK    1  A    between atoms: C3_3  and  C48_30 
REMARK    2  A    between atoms: C7_6  and  C10_8 
REMARK    3  A    between atoms: C13_11  and  C24_18 
REMARK    4  A    between atoms: N27_20  and  C31_23 
REMARK    5  A    between atoms: C48_30  and  N51_31 
ROOT
HETATM    1  C10   D T   1      -3.854   1.563  11.881  1.00 15.48     0.019 A 
HETATM    2  C11   D T   1      -4.069   0.519  12.803  1.00 17.77     0.099 A 
HETATM    3  N12   D T   1      -3.030  -0.081  13.463  1.00 14.42    -0.242 NA
HETATM    4  C13   D T   1      -3.266  -1.081  14.350  1.00 16.70     0.103 A 
HETATM    5  C14   D T   1      -4.583  -1.496  14.572  1.00 16.81     0.118 A 
HETATM    6  N16   D T   1      -5.613  -0.924  13.918  1.00 18.92    -0.241 NA
HETATM    7  C17   D T   1      -5.387   0.081  13.043  1.00 19.63     0.099 A 
HETATM    8  C18   D T   1      -6.479   0.668  12.382  1.00 16.22     0.021 A 
HETATM    9  C20   D T   1      -6.258   1.699  11.462  1.00 16.47     0.002 A 
HETATM   10  C22   D T   1      -4.950   2.153  11.219  1.00 11.45     0.002 A 
ENDROOT
BRANCH   1  11
HETATM   11  C7    D T   1      -2.494   2.064  11.535  1.00 15.00     0.006 A 
HETATM   12  C5    D T   1      -2.204   2.171  10.168  1.00 16.13     0.030 A 
HETATM   13  C4    D T   1      -0.953   2.618   9.732  1.00 20.46     0.140 A 
HETATM   14  C3    D T   1       0.025   2.974  10.677  1.00 19.71     0.055 A 
HETATM   15  F47   D T   1      -0.723   2.696   8.414  1.00 18.81    -0.204 F 
HETATM   16  C2    D T   1      -0.267   2.851  12.050  1.00 20.82     0.140 A 
HETATM   17  F1    D T   1       0.625   3.180  12.986  1.00 22.79    -0.204 F 
HETATM   18  C8    D T   1      -1.520   2.398  12.482  1.00 15.46     0.030 A 
BRANCH  14  19
HETATM   19  C48   D T   1       1.393   3.498  10.204  1.00 20.25     0.129 C 
BRANCH  19  20
HETATM   20  N51   D T   1       1.343   4.997  10.039  1.00 24.07    -0.361 N 
HETATM   21  C52   D T   1       1.257   5.753  11.329  1.00 22.40     0.130 C 
HETATM   22  C55   D T   1       1.216   7.292  11.133  1.00 27.40     0.166 C 
HETATM   23  O58   D T   1       0.215   7.643  10.157  1.00 26.30    -0.350 OA
HETATM   24  C59   D T   1       0.516   7.077   8.867  1.00 25.21     0.166 C 
HETATM   25  C62   D T   1       0.449   5.528   8.960  1.00 22.22     0.130 C 
ENDBRANCH  19  20
ENDBRANCH  14  19
ENDBRANCH   1  11
BRANCH   4  26
HETATM   26  C24   D T   1      -2.093  -1.706  15.085  1.00 15.92     0.059 A 
HETATM   27  C25   D T   1      -2.063  -2.639  16.076  1.00 18.01     0.098 A 
HETATM   28  N27   D T   1      -0.803  -2.842  16.371  1.00 18.37    -0.251 N 
HETATM   29  N28   D T   1      -0.016  -2.050  15.606  1.00 18.72    -0.168 NA
HETATM   30  C29   D T   1      -0.704  -1.340  14.810  1.00 18.29     0.123 A 
BRANCH  28  31
HETATM   31  C31   D T   1      -0.184  -3.710  17.365  1.00 23.01     0.110 C 
HETATM   32  C33   D T   1      -0.394  -3.117  18.791  1.00 23.05     0.063 C 
HETATM   33  C36   D T   1       0.241  -4.010  19.887  1.00 27.20     0.292 C 
HETATM   34  N39   D T   1      -0.264  -5.388  19.713  1.00 30.30     0.339 N 
HETATM   35  C41   D T   1       0.111  -6.017  18.415  1.00 26.52     0.292 C 
HETATM   36  C44   D T   1      -0.557  -5.214  17.254  1.00 29.21     0.063 C 
ENDBRANCH  28  31
ENDBRANCH   4  26
TORSDOF 5
