REMARK  12 active torsions:
REMARK  status: ('A' for Active; 'I' for Inactive)
REMARK    1  A    between atoms: C1_1  and  O11_11 
REMARK    2  A    between atoms: C2_2  and  O13_13 
REMARK    3  A    between atoms: C10_10  and  O14_14 
REMARK    4  A    between atoms: O13_13  and  C23_23 
REMARK    5  A    between atoms: O14_14  and  C15_15 
REMARK    6  A    between atoms: C18_18  and  N22_22 
REMARK       I    between atoms: N22_22  and  C32_32 
REMARK    7  A    between atoms: C23_23  and  C24_24 
REMARK    8  A    between atoms: C24_24  and  C25_25 
REMARK    9  A    between atoms: C25_25  and  N26_26 
REMARK   10  A    between atoms: C32_32  and  C33_33 
REMARK   11  A    between atoms: C33_33  and  C34_34 
REMARK       I    between atoms: C34_34  and  N35_35 
REMARK   12  A    between atoms: N35_35  and  C38_38 
ROOT
HETATM    1  C15   D T   1      -3.539   3.171  12.599  1.00 20.42     0.127 A 
HETATM    2  C16   D T   1      -3.649   2.892  11.251  1.00 16.92     0.029 A 
HETATM    3  C17   D T   1      -4.012   3.899  10.384  1.00 18.89     0.021 A 
HETATM    4  C18   D T   1      -4.287   5.202  10.829  1.00 19.71     0.087 A 
HETATM    5  C19   D T   1      -4.161   5.531  12.174  1.00 20.34     0.051 A 
HETATM    6  C20   D T   1      -3.805   4.531  13.080  1.00 23.00     0.164 A 
HETATM    7  F21   D T   1      -3.688   4.715  14.406  1.00 24.23    -0.202 F 
ENDROOT
BRANCH   1   8
HETATM    8  O14   D T   1      -3.192   2.250  13.546  1.00 19.07    -0.305 OA
BRANCH   8   9
HETATM    9  C10   D T   1      -4.146   1.333  13.945  1.00 16.92     0.103 A 
HETATM   10  C5    D T   1      -3.651   0.097  14.518  1.00 16.19     0.043 A 
HETATM   11  C4    D T   1      -4.668  -0.914  14.913  1.00 14.79     0.085 A 
HETATM   12  C6    D T   1      -2.293  -0.101  14.680  1.00 16.37     0.030 A 
HETATM   13  C3    D T   1      -4.233  -2.104  15.485  1.00 15.80     0.045 A 
HETATM   14  N7    D T   1      -5.978  -0.658  14.724  1.00 17.15    -0.244 NA
HETATM   15  C2    D T   1      -2.857  -2.318  15.639  1.00 18.47     0.118 A 
HETATM   16  C1    D T   1      -1.859  -1.313  15.237  1.00 19.14     0.116 A 
HETATM   17  C8    D T   1      -6.443   0.474  14.156  1.00 16.83     0.101 A 
HETATM   18  C9    D T   1      -5.538   1.508  13.798  1.00 17.41     0.045 A 
BRANCH  15  19
HETATM   19  O13   D T   1      -2.306  -3.440  16.168  1.00 18.42    -0.329 OA
BRANCH  19  20
HETATM   20  C23   D T   1      -3.044  -4.427  16.897  1.00 21.03     0.151 C 
BRANCH  20  21
HETATM   21  C24   D T   1      -2.006  -5.376  17.496  1.00 22.44     0.056 C 
BRANCH  21  22
HETATM   22  C25   D T   1      -1.772  -6.422  16.432  1.00 28.63     0.100 C 
BRANCH  22  23
HETATM   23  N26   D T   1      -0.748  -7.390  16.766  1.00 33.59    -0.364 N 
HETATM   24  C27   D T   1      -0.296  -8.202  15.629  1.00 36.37     0.130 C 
HETATM   25  C28   D T   1       0.249  -9.531  16.157  1.00 38.52     0.166 C 
HETATM   26  O29   D T   1       1.198  -9.185  17.155  1.00 39.12    -0.350 OA
HETATM   27  C30   D T   1       0.474  -8.653  18.274  1.00 39.82     0.166 C 
HETATM   28  C31   D T   1       0.132  -7.197  17.915  1.00 38.13     0.130 C 
ENDBRANCH  22  23
ENDBRANCH  21  22
ENDBRANCH  20  21
ENDBRANCH  19  20
ENDBRANCH  15  19
BRANCH  16  29
HETATM   29  O11   D T   1      -0.531  -1.671  15.432  1.00 20.67    -0.326 OA
HETATM   30  C12   D T   1       0.587  -0.831  15.137  1.00 21.17     0.181 C 
ENDBRANCH  16  29
ENDBRANCH   8   9
ENDBRANCH   1   8
BRANCH   4  31
HETATM   31  N22   D T   1      -4.649   6.116   9.901  1.00 20.22    -0.211 NA
HETATM   32  C32   D T   1      -4.511   7.459   9.919  1.00 20.90     0.263 C 
HETATM   33  O36   D T   1      -4.089   8.088  10.859  1.00 20.49    -0.270 OA
BRANCH  32  34
HETATM   34  C33   D T   1      -4.878   8.233   8.666  1.00 20.84     0.146 A 
HETATM   35  C45   D T   1      -3.948   9.455   8.535  1.00 21.22     0.019 A 
HETATM   36  C46   D T   1      -5.427   9.664   8.849  1.00 20.56     0.019 A 
BRANCH  34  37
HETATM   37  C34   D T   1      -5.229   7.433   7.391  1.00 20.23     0.263 C 
HETATM   38  N35   D T   1      -5.681   8.072   6.294  1.00 17.24    -0.211 NA
HETATM   39  O37   D T   1      -5.480   6.227   7.505  1.00 19.27    -0.270 OA
BRANCH  38  40
HETATM   40  C38   D T   1      -5.962   7.393   5.135  1.00 18.52     0.085 A 
HETATM   41  C39   D T   1      -7.034   6.482   5.057  1.00 17.15     0.021 A 
HETATM   42  C40   D T   1      -7.329   5.766   3.889  1.00 19.70     0.031 A 
HETATM   43  C41   D T   1      -6.523   6.032   2.755  1.00 19.38     0.140 A 
HETATM   44  C42   D T   1      -5.464   6.942   2.819  1.00 18.79     0.031 A 
HETATM   45  F44   D T   1      -6.762   5.401   1.585  1.00 21.15    -0.204 F 
HETATM   46  C43   D T   1      -5.179   7.657   3.990  1.00 17.84     0.021 A 
ENDBRANCH  38  40
ENDBRANCH  34  37
ENDBRANCH  32  34
ENDBRANCH   4  31
TORSDOF 12
