REMARK  12 active torsions:
REMARK  status: ('A' for Active; 'I' for Inactive)
REMARK    1  A    between atoms: C1_1  and  O11_11 
REMARK    2  A    between atoms: C2_2  and  O13_13 
REMARK    3  A    between atoms: C10_10  and  O14_14 
REMARK    4  A    between atoms: O13_13  and  C23_23 
REMARK    5  A    between atoms: O14_14  and  C15_15 
REMARK    6  A    between atoms: C18_18  and  N22_22 
REMARK       I    between atoms: N22_22  and  C32_32 
REMARK    7  A    between atoms: C23_23  and  C24_24 
REMARK    8  A    between atoms: C24_24  and  C25_25 
REMARK    9  A    between atoms: C25_25  and  N26_26 
REMARK   10  A    between atoms: C32_32  and  C33_33 
REMARK   11  A    between atoms: C33_33  and  C34_34 
REMARK       I    between atoms: C34_34  and  N35_35 
REMARK   12  A    between atoms: N35_35  and  C38_38 
ROOT
HETATM    1  C15   D T   1      -3.245   2.298  12.848  1.00 20.42     0.127 A 
HETATM    2  C16   D T   1      -3.356   2.109  11.485  1.00 16.92     0.029 A 
HETATM    3  C17   D T   1      -3.665   3.183  10.681  1.00 18.89     0.021 A 
HETATM    4  C18   D T   1      -3.887   4.466  11.205  1.00 19.71     0.087 A 
HETATM    5  C19   D T   1      -3.759   4.705  12.568  1.00 20.34     0.051 A 
HETATM    6  C20   D T   1      -3.456   3.635  13.412  1.00 23.00     0.164 A 
HETATM    7  F21   D T   1      -3.343   3.730  14.748  1.00 24.23    -0.202 F 
ENDROOT
BRANCH   1   8
HETATM    8  O14   D T   1      -2.948   1.305  13.738  1.00 19.07    -0.305 OA
BRANCH   8   9
HETATM    9  C10   D T   1      -3.945   0.408  14.073  1.00 16.92     0.103 A 
HETATM   10  C5    D T   1      -3.510  -0.883  14.570  1.00 16.19     0.043 A 
HETATM   11  C4    D T   1      -4.575  -1.870  14.895  1.00 14.79     0.085 A 
HETATM   12  C6    D T   1      -2.164  -1.150  14.728  1.00 16.37     0.030 A 
HETATM   13  C3    D T   1      -4.198  -3.111  15.393  1.00 15.80     0.045 A 
HETATM   14  N7    D T   1      -5.870  -1.545  14.713  1.00 17.15    -0.244 NA
HETATM   15  C2    D T   1      -2.834  -3.396  15.543  1.00 18.47     0.118 A 
HETATM   16  C1    D T   1      -1.789  -2.412  15.211  1.00 19.14     0.116 A 
HETATM   17  C8    D T   1      -6.280  -0.359  14.214  1.00 16.83     0.101 A 
HETATM   18  C9    D T   1      -5.327   0.653  13.928  1.00 17.41     0.045 A 
BRANCH  15  19
HETATM   19  O13   D T   1      -2.338  -4.572  16.003  1.00 18.42    -0.329 OA
BRANCH  19  20
HETATM   20  C23   D T   1      -3.126  -5.569  16.664  1.00 21.03     0.151 C 
BRANCH  20  21
HETATM   21  C24   D T   1      -2.136  -6.598  17.209  1.00 22.44     0.056 C 
BRANCH  21  22
HETATM   22  C25   D T   1      -1.939  -7.585  16.083  1.00 28.63     0.100 C 
BRANCH  22  23
HETATM   23  N26   D T   1      -0.961  -8.617  16.362  1.00 33.59    -0.364 N 
HETATM   24  C27   D T   1      -0.535  -9.376  15.179  1.00 36.37     0.130 C 
HETATM   25  C28   D T   1      -0.055 -10.758  15.627  1.00 38.52     0.166 C 
HETATM   26  O29   D T   1       0.900 -10.518  16.650  1.00 39.12    -0.350 OA
HETATM   27  C30   D T   1       0.190 -10.024  17.796  1.00 39.82     0.166 C 
HETATM   28  C31   D T   1      -0.084  -8.535  17.526  1.00 38.13     0.130 C 
ENDBRANCH  22  23
ENDBRANCH  21  22
ENDBRANCH  20  21
ENDBRANCH  19  20
ENDBRANCH  15  19
BRANCH  16  29
HETATM   29  O11   D T   1      -0.480  -2.841  15.391  1.00 20.67    -0.326 OA
HETATM   30  C12   D T   1       0.677  -2.035  15.156  1.00 21.17     0.181 C 
ENDBRANCH  16  29
ENDBRANCH   8   9
ENDBRANCH   1   8
BRANCH   4  31
HETATM   31  N22   D T   1      -4.200   5.452  10.334  1.00 20.22    -0.211 NA
HETATM   32  C32   D T   1      -4.003   6.783  10.436  1.00 20.90     0.263 C 
HETATM   33  O36   D T   1      -3.562   7.333  11.417  1.00 20.49    -0.270 OA
BRANCH  32  34
HETATM   34  C33   D T   1      -4.324   7.649   9.232  1.00 20.84     0.146 A 
HETATM   35  C45   D T   1      -3.340   8.835   9.184  1.00 21.22     0.019 A 
HETATM   36  C46   D T   1      -4.811   9.089   9.501  1.00 20.56     0.019 A 
BRANCH  34  37
HETATM   37  C34   D T   1      -4.699   6.947   7.907  1.00 20.23     0.263 C 
HETATM   38  N35   D T   1      -5.111   7.673   6.850  1.00 17.24    -0.211 NA
HETATM   39  O37   D T   1      -5.003   5.749   7.944  1.00 19.27    -0.270 OA
BRANCH  38  40
HETATM   40  C38   D T   1      -5.411   7.080   5.648  1.00 18.52     0.085 A 
HETATM   41  C39   D T   1      -6.521   6.225   5.507  1.00 17.15     0.021 A 
HETATM   42  C40   D T   1      -6.837   5.597   4.294  1.00 19.70     0.031 A 
HETATM   43  C41   D T   1      -6.010   5.897   3.185  1.00 19.38     0.140 A 
HETATM   44  C42   D T   1      -4.913   6.754   3.312  1.00 18.79     0.031 A 
HETATM   45  F44   D T   1      -6.266   5.352   1.976  1.00 21.15    -0.204 F 
HETATM   46  C43   D T   1      -4.608   7.380   4.527  1.00 17.84     0.021 A 
ENDBRANCH  38  40
ENDBRANCH  34  37
ENDBRANCH  32  34
ENDBRANCH   4  31
TORSDOF 12
