REMARK  2 active torsions:
REMARK  status: ('A' for Active; 'I' for Inactive)
REMARK    1  A    between atoms: CAX_24  and  NBD_30 
REMARK    2  A    between atoms: CAY_25  and  CAZ_26 
ROOT
HETATM    1  CAE   D T   1       9.202   9.339   4.353  1.00 15.33     0.002 A 
HETATM    2  CAF   D T   1       9.852  10.559   2.417  1.00 33.04     0.002 A 
HETATM    3  CAG   D T   1      10.538   9.074   4.651  1.00 21.87     0.017 A 
HETATM    4  CAH   D T   1      11.191  10.274   2.717  1.00 18.39     0.017 A 
HETATM    5  CAK   D T   1       7.020  11.347   2.066  1.00 18.99     0.102 A 
HETATM    6  CAL   D T   1       3.000   9.632   2.959  1.00 11.90     0.124 A 
HETATM    7  CAM   D T   1       6.473   9.511   3.458  1.00 18.90     0.104 A 
HETATM    8  NAS   D T   1       5.735  11.534   1.797  1.00 18.39    -0.225 NA
HETATM    9  NAT   D T   1       4.089   9.065   3.512  1.00 12.09    -0.162 NA
HETATM   10  CAV   D T   1       8.827  10.101   3.243  1.00 21.96     0.003 A 
HETATM   11  CAW   D T   1       7.450  10.341   2.932  1.00 19.91     0.038 A 
HETATM   12  CAX   D T   1      11.544   9.542   3.825  1.00 28.57     0.056 A 
HETATM   13  CAZ   D T   1       3.368  10.669   2.186  1.00 11.86     0.057 A 
HETATM   14  CBC   D T   1       4.770  10.736   2.305  1.00 11.35     0.165 A 
HETATM   15  NBE   D T   1       5.118   9.699   3.170  1.00 13.25    -0.211 N 
ENDROOT
BRANCH  13  16
HETATM   16  CAY   D T   1       2.499  11.488   1.414  1.00 15.42     0.007 A 
HETATM   17  CAD   D T   1       1.322  11.948   1.993  1.00 12.05     0.021 A 
HETATM   18  CAC   D T   1       0.393  12.694   1.274  1.00 20.05     0.099 A 
HETATM   19  NAR   D T   1       0.573  12.988   0.011  1.00 15.05    -0.244 NA
HETATM   20  CBA   D T   1       1.696  12.539  -0.624  1.00 17.37     0.081 A 
HETATM   21  CAI   D T   1       1.866  12.833  -1.963  1.00 17.61     0.019 A 
HETATM   22  CBB   D T   1       2.665  11.792   0.045  1.00 11.87     0.018 A 
HETATM   23  CAA   D T   1       2.990  12.382  -2.675  1.00 16.02     0.002 A 
HETATM   24  CAB   D T   1       3.957  11.659  -2.008  1.00 12.08     0.000 A 
HETATM   25  CAJ   D T   1       3.784  11.347  -0.676  1.00 13.82     0.002 A 
ENDBRANCH  13  16
BRANCH  12  26
HETATM   26  NBD   D T   1      12.892   9.236   4.028  1.00 22.08    -0.344 N 
HETATM   27  CAP   D T   1      13.249   7.905   4.670  1.00 30.90     0.127 C 
HETATM   28  CAN   D T   1      14.758   7.676   4.989  1.00 24.56     0.144 C 
HETATM   29  NAU   D T   1      15.628   8.763   4.508  1.00 23.51    -0.291 NA
HETATM   30  CAO   D T   1      15.206   9.384   3.235  1.00 28.25     0.144 C 
HETATM   31  CAQ   D T   1      13.878  10.101   3.364  1.00 25.74     0.127 C 
ENDBRANCH  12  26
TORSDOF 2
