REMARK  2 active torsions:
REMARK  status: ('A' for Active; 'I' for Inactive)
REMARK    1  A    between atoms: CAX_24  and  NBD_30 
REMARK    2  A    between atoms: CAY_25  and  CAZ_26 
ROOT
HETATM    1  CAE   D T   1      -5.526 -11.042  -5.979  1.00 15.33     0.002 A 
HETATM    2  CAF   D T   1      -7.513  -9.766  -5.695  1.00 33.04     0.002 A 
HETATM    3  CAG   D T   1      -6.277 -12.210  -6.104  1.00 21.87     0.017 A 
HETATM    4  CAH   D T   1      -8.258 -10.948  -5.808  1.00 18.39     0.017 A 
HETATM    5  CAK   D T   1      -5.852  -7.317  -5.783  1.00 18.99     0.102 A 
HETATM    6  CAL   D T   1      -1.695  -6.128  -4.685  1.00 11.90     0.124 A 
HETATM    7  CAM   D T   1      -4.008  -8.707  -5.258  1.00 18.90     0.104 A 
HETATM    8  NAS   D T   1      -5.095  -6.240  -5.623  1.00 18.39    -0.225 NA
HETATM    9  NAT   D T   1      -2.011  -7.436  -4.726  1.00 12.09    -0.162 NA
HETATM   10  CAV   D T   1      -6.123  -9.793  -5.791  1.00 21.96     0.003 A 
HETATM   11  CAW   D T   1      -5.337  -8.605  -5.634  1.00 19.91     0.038 A 
HETATM   12  CAX   D T   1      -7.657 -12.165  -6.014  1.00 28.57     0.056 A 
HETATM   13  CAZ   D T   1      -2.774  -5.388  -4.996  1.00 11.86     0.057 A 
HETATM   14  CBC   D T   1      -3.796  -6.321  -5.260  1.00 11.35     0.165 A 
HETATM   15  NBE   D T   1      -3.208  -7.573  -5.080  1.00 13.25    -0.211 N 
ENDROOT
BRANCH  13  16
HETATM   16  CAY   D T   1      -2.838  -3.968  -5.023  1.00 15.42     0.007 A 
HETATM   17  CAD   D T   1      -1.806  -3.264  -5.632  1.00 12.05     0.021 A 
HETATM   18  CAC   D T   1      -1.767  -1.872  -5.633  1.00 20.05     0.099 A 
HETATM   19  NAR   D T   1      -2.693  -1.156  -5.047  1.00 15.05    -0.244 NA
HETATM   20  CBA   D T   1      -3.719  -1.790  -4.404  1.00 17.37     0.081 A 
HETATM   21  CAI   D T   1      -4.679  -1.027  -3.768  1.00 17.61     0.019 A 
HETATM   22  CBB   D T   1      -3.814  -3.181  -4.375  1.00 11.87     0.018 A 
HETATM   23  CAA   D T   1      -5.746  -1.621  -3.074  1.00 16.02     0.002 A 
HETATM   24  CAB   D T   1      -5.849  -2.996  -3.061  1.00 12.08     0.000 A 
HETATM   25  CAJ   D T   1      -4.884  -3.764  -3.679  1.00 13.82     0.002 A 
ENDBRANCH  13  16
BRANCH  12  26
HETATM   26  NBD   D T   1      -8.453 -13.313  -6.048  1.00 22.08    -0.344 N 
HETATM   27  CAP   D T   1      -7.884 -14.612  -5.503  1.00 30.90     0.127 C 
HETATM   28  CAN   D T   1      -8.768 -15.884  -5.685  1.00 24.56     0.144 C 
HETATM   29  NAU   D T   1     -10.088 -15.596  -6.272  1.00 23.51    -0.291 NA
HETATM   30  CAO   D T   1     -10.686 -14.307  -5.868  1.00 28.25     0.144 C 
HETATM   31  CAQ   D T   1      -9.877 -13.125  -6.362  1.00 25.74     0.127 C 
ENDBRANCH  12  26
TORSDOF 2
