REMARK  2 active torsions:
REMARK  status: ('A' for Active; 'I' for Inactive)
REMARK    1  A    between atoms: CAX_24  and  NBD_30 
REMARK    2  A    between atoms: CAY_25  and  CAZ_26 
ROOT
HETATM    1  CAE   D T   1       6.633   3.010  10.374  1.00 15.33     0.002 A 
HETATM    2  CAF   D T   1       7.585   4.428   8.718  1.00 33.04     0.002 A 
HETATM    3  CAG   D T   1       7.900   2.736  10.887  1.00 21.87     0.017 A 
HETATM    4  CAH   D T   1       8.856   4.133   9.232  1.00 18.39     0.017 A 
HETATM    5  CAK   D T   1       4.840   5.206   7.928  1.00 18.99     0.102 A 
HETATM    6  CAL   D T   1       0.783   3.351   7.893  1.00 11.90     0.124 A 
HETATM    7  CAM   D T   1       4.109   3.231   9.011  1.00 18.90     0.104 A 
HETATM    8  NAS   D T   1       3.621   5.401   7.445  1.00 18.39    -0.225 NA
HETATM    9  NAT   D T   1       1.772   2.748   8.580  1.00 12.09    -0.162 NA
HETATM   10  CAV   D T   1       6.443   3.874   9.293  1.00 21.96     0.003 A 
HETATM   11  CAW   D T   1       5.138   4.124   8.757  1.00 19.91     0.038 A 
HETATM   12  CAX   D T   1       9.025   3.299  10.310  1.00 28.57     0.056 A 
HETATM   13  CAZ   D T   1       1.252   4.466   7.305  1.00 11.86     0.057 A 
HETATM   14  CBC   D T   1       2.606   4.542   7.686  1.00 11.35     0.165 A 
HETATM   15  NBE   D T   1       2.824   3.428   8.497  1.00 13.25    -0.211 N 
ENDROOT
BRANCH  13  16
HETATM   16  CAY   D T   1       0.513   5.346   6.468  1.00 15.42     0.007 A 
HETATM   17  CAD   D T   1      -0.765   5.729   6.861  1.00 12.05     0.021 A 
HETATM   18  CAC   D T   1      -1.571   6.530   6.058  1.00 20.05     0.099 A 
HETATM   19  NAR   D T   1      -1.173   6.952   4.884  1.00 15.05    -0.244 NA
HETATM   20  CBA   D T   1       0.061   6.585   4.428  1.00 17.37     0.081 A 
HETATM   21  CAI   D T   1       0.463   7.015   3.178  1.00 17.61     0.019 A 
HETATM   22  CBB   D T   1       0.915   5.789   5.189  1.00 11.87     0.018 A 
HETATM   23  CAA   D T   1       1.712   6.655   2.645  1.00 16.02     0.002 A 
HETATM   24  CAB   D T   1       2.563   5.883   3.407  1.00 12.08     0.000 A 
HETATM   25  CAJ   D T   1       2.161   5.436   4.648  1.00 13.82     0.002 A 
ENDBRANCH  13  16
BRANCH  12  26
HETATM   26  NBD   D T   1      10.322   2.993  10.728  1.00 22.08    -0.344 N 
HETATM   27  CAP   D T   1      10.599   1.610  11.294  1.00 30.90     0.127 C 
HETATM   28  CAN   D T   1      12.031   1.371  11.863  1.00 24.56     0.144 C 
HETATM   29  NAU   D T   1      12.938   2.514  11.657  1.00 23.51    -0.291 NA
HETATM   30  CAO   D T   1      12.736   3.254  10.394  1.00 28.25     0.144 C 
HETATM   31  CAQ   D T   1      11.383   3.935  10.345  1.00 25.74     0.127 C 
ENDBRANCH  12  26
TORSDOF 2
