REMARK  2 active torsions:
REMARK  status: ('A' for Active; 'I' for Inactive)
REMARK    1  A    between atoms: CAX_24  and  NBD_30 
REMARK    2  A    between atoms: CAY_25  and  CAZ_26 
ROOT
HETATM    1  CAE   D T   1      -2.473  -8.717  10.856  1.00 15.33     0.002 A 
HETATM    2  CAF   D T   1      -0.334  -7.774  10.420  1.00 33.04     0.002 A 
HETATM    3  CAG   D T   1      -1.892  -9.964  11.082  1.00 21.87     0.017 A 
HETATM    4  CAH   D T   1       0.239  -9.035  10.634  1.00 18.39     0.017 A 
HETATM    5  CAK   D T   1      -1.625  -5.113  10.296  1.00 18.99     0.102 A 
HETATM    6  CAL   D T   1      -5.601  -3.443   9.152  1.00 11.90     0.124 A 
HETATM    7  CAM   D T   1      -3.663  -6.264   9.936  1.00 18.90     0.104 A 
HETATM    8  NAS   D T   1      -2.226  -3.958  10.044  1.00 18.39    -0.225 NA
HETATM    9  NAT   D T   1      -5.473  -4.774   9.315  1.00 12.09    -0.162 NA
HETATM   10  CAV   D T   1      -1.710  -7.590  10.539  1.00 21.96     0.003 A 
HETATM   11  CAW   D T   1      -2.323  -6.322  10.280  1.00 19.91     0.038 A 
HETATM   12  CAX   D T   1      -0.524 -10.128  10.967  1.00 28.57     0.056 A 
HETATM   13  CAZ   D T   1      -4.419  -2.842   9.373  1.00 11.86     0.057 A 
HETATM   14  CBC   D T   1      -3.534  -3.884   9.711  1.00 11.35     0.165 A 
HETATM   15  NBE   D T   1      -4.298  -5.049   9.661  1.00 13.25    -0.211 N 
ENDROOT
BRANCH  13  16
HETATM   16  CAY   D T   1      -4.153  -1.449   9.262  1.00 15.42     0.007 A 
HETATM   17  CAD   D T   1      -5.057  -0.549   9.817  1.00 12.05     0.021 A 
HETATM   18  CAC   D T   1      -4.897   0.827   9.683  1.00 20.05     0.099 A 
HETATM   19  NAR   D T   1      -3.896   1.344   9.017  1.00 15.05    -0.244 NA
HETATM   20  CBA   D T   1      -2.990   0.511   8.423  1.00 17.37     0.081 A 
HETATM   21  CAI   D T   1      -1.950   1.065   7.702  1.00 17.61     0.019 A 
HETATM   22  CBB   D T   1      -3.094  -0.875   8.526  1.00 11.87     0.018 A 
HETATM   23  CAA   D T   1      -0.999   0.261   7.052  1.00 16.02     0.002 A 
HETATM   24  CAB   D T   1      -1.093  -1.110   7.170  1.00 12.08     0.000 A 
HETATM   25  CAJ   D T   1      -2.139  -1.669   7.873  1.00 13.82     0.002 A 
ENDBRANCH  13  16
BRANCH  12  26
HETATM   26  NBD   D T   1       0.102 -11.370  11.099  1.00 22.08    -0.344 N 
HETATM   27  CAP   D T   1      -0.662 -12.619  10.690  1.00 30.90     0.127 C 
HETATM   28  CAN   D T   1       0.037 -13.982  10.981  1.00 24.56     0.144 C 
HETATM   29  NAU   D T   1       1.401 -13.835  11.517  1.00 23.51    -0.291 NA
HETATM   30  CAO   D T   1       2.164 -12.689  10.981  1.00 28.25     0.144 C 
HETATM   31  CAQ   D T   1       1.547 -11.362  11.371  1.00 25.74     0.127 C 
ENDBRANCH  12  26
TORSDOF 2
