REMARK  2 active torsions:
REMARK  status: ('A' for Active; 'I' for Inactive)
REMARK    1  A    between atoms: CAX_24  and  NBD_30 
REMARK    2  A    between atoms: CAY_25  and  CAZ_26 
ROOT
HETATM    1  CAE   D T   1      -1.291  -3.804  15.076  1.00 15.33     0.002 A 
HETATM    2  CAF   D T   1       0.686  -3.011  14.019  1.00 33.04     0.002 A 
HETATM    3  CAG   D T   1      -0.608  -4.926  15.543  1.00 21.87     0.017 A 
HETATM    4  CAH   D T   1       1.360  -4.150  14.480  1.00 18.39     0.017 A 
HETATM    5  CAK   D T   1      -0.764  -0.512  13.371  1.00 18.99     0.102 A 
HETATM    6  CAL   D T   1      -4.966   0.717  12.517  1.00 11.90     0.124 A 
HETATM    7  CAM   D T   1      -2.761  -1.736  13.719  1.00 18.90     0.104 A 
HETATM    8  NAS   D T   1      -1.465   0.514  12.910  1.00 18.39    -0.225 NA
HETATM    9  NAT   D T   1      -4.735  -0.507  13.028  1.00 12.09    -0.162 NA
HETATM   10  CAV   D T   1      -0.660  -2.812  14.322  1.00 21.96     0.003 A 
HETATM   11  CAW   D T   1      -1.381  -1.680  13.823  1.00 19.91     0.038 A 
HETATM   12  CAX   D T   1       0.730  -5.105  15.240  1.00 28.57     0.056 A 
HETATM   13  CAZ   D T   1      -3.802   1.367  12.345  1.00 11.86     0.057 A 
HETATM   14  CBC   D T   1      -2.813   0.476  12.805  1.00 11.35     0.165 A 
HETATM   15  NBE   D T   1      -3.504  -0.659  13.226  1.00 13.25    -0.211 N 
ENDROOT
BRANCH  13  16
HETATM   16  CAY   D T   1      -3.642   2.669  11.797  1.00 15.42     0.007 A 
HETATM   17  CAD   D T   1      -4.492   3.684  12.221  1.00 12.05     0.021 A 
HETATM   18  CAC   D T   1      -4.439   4.963  11.674  1.00 20.05     0.099 A 
HETATM   19  NAR   D T   1      -3.595   5.271  10.723  1.00 15.05    -0.244 NA
HETATM   20  CBA   D T   1      -2.752   4.310  10.241  1.00 17.37     0.081 A 
HETATM   21  CAI   D T   1      -1.881   4.638   9.220  1.00 17.61     0.019 A 
HETATM   22  CBB   D T   1      -2.756   3.013  10.752  1.00 11.87     0.018 A 
HETATM   23  CAA   D T   1      -1.006   3.687   8.670  1.00 16.02     0.002 A 
HETATM   24  CAB   D T   1      -0.997   2.410   9.189  1.00 12.08     0.000 A 
HETATM   25  CAJ   D T   1      -1.876   2.071  10.196  1.00 13.82     0.002 A 
ENDBRANCH  13  16
BRANCH  12  26
HETATM   26  NBD   D T   1       1.441  -6.249  15.609  1.00 22.08    -0.344 N 
HETATM   27  CAP   D T   1       0.695  -7.569  15.715  1.00 30.90     0.127 C 
HETATM   28  CAN   D T   1       1.513  -8.783  16.255  1.00 24.56     0.144 C 
HETATM   29  NAU   D T   1       2.936  -8.474  16.478  1.00 23.51    -0.291 NA
HETATM   30  CAO   D T   1       3.530  -7.528  15.511  1.00 28.25     0.144 C 
HETATM   31  CAQ   D T   1       2.908  -6.150  15.608  1.00 25.74     0.127 C 
ENDBRANCH  12  26
TORSDOF 2
