REMARK  2 active torsions:
REMARK  status: ('A' for Active; 'I' for Inactive)
REMARK    1  A    between atoms: CAX_24  and  NBD_30 
REMARK    2  A    between atoms: CAY_25  and  CAZ_26 
ROOT
HETATM    1  CAE   D T   1       4.021   8.358  -8.817  1.00 15.33     0.002 A 
HETATM    2  CAF   D T   1       5.116   8.456  -6.708  1.00 33.04     0.002 A 
HETATM    3  CAG   D T   1       3.893   9.746  -8.830  1.00 21.87     0.017 A 
HETATM    4  CAH   D T   1       4.969   9.850  -6.724  1.00 18.39     0.017 A 
HETATM    5  CAK   D T   1       5.637   5.551  -6.938  1.00 18.99     0.102 A 
HETATM    6  CAL   D T   1       3.684   2.003  -8.808  1.00 11.90     0.124 A 
HETATM    7  CAM   D T   1       3.891   5.497  -8.536  1.00 18.90     0.104 A 
HETATM    8  NAS   D T   1       5.695   4.226  -6.947  1.00 18.39    -0.225 NA
HETATM    9  NAT   D T   1       3.259   3.236  -9.144  1.00 12.09    -0.162 NA
HETATM   10  CAV   D T   1       4.650   7.682  -7.768  1.00 21.96     0.003 A 
HETATM   11  CAW   D T   1       4.748   6.253  -7.753  1.00 19.91     0.038 A 
HETATM   12  CAX   D T   1       4.367  10.501  -7.773  1.00 28.57     0.056 A 
HETATM   13  CAZ   D T   1       4.676   2.093  -7.905  1.00 11.86     0.057 A 
HETATM   14  CBC   D T   1       4.867   3.475  -7.707  1.00 11.35     0.165 A 
HETATM   15  NBE   D T   1       3.942   4.100  -8.542  1.00 13.25    -0.211 N 
ENDROOT
BRANCH  13  16
HETATM   16  CAY   D T   1       5.351   1.004  -7.290  1.00 15.42     0.007 A 
HETATM   17  CAD   D T   1       5.762  -0.062  -8.082  1.00 12.05     0.021 A 
HETATM   18  CAC   D T   1       6.364  -1.193  -7.537  1.00 20.05     0.099 A 
HETATM   19  NAR   D T   1       6.560  -1.316  -6.249  1.00 15.05    -0.244 NA
HETATM   20  CBA   D T   1       6.151  -0.315  -5.414  1.00 17.37     0.081 A 
HETATM   21  CAI   D T   1       6.340  -0.465  -4.053  1.00 17.61     0.019 A 
HETATM   22  CBB   D T   1       5.547   0.843  -5.901  1.00 11.87     0.018 A 
HETATM   23  CAA   D T   1       5.922   0.520  -3.143  1.00 16.02     0.002 A 
HETATM   24  CAB   D T   1       5.342   1.673  -3.628  1.00 12.08     0.000 A 
HETATM   25  CAJ   D T   1       5.134   1.820  -4.983  1.00 13.82     0.002 A 
ENDBRANCH  13  16
BRANCH  12  26
HETATM   26  NBD   D T   1       4.191  11.885  -7.694  1.00 22.08    -0.344 N 
HETATM   27  CAP   D T   1       2.955  12.500  -8.330  1.00 30.90     0.127 C 
HETATM   28  CAN   D T   1       2.878  14.058  -8.323  1.00 24.56     0.144 C 
HETATM   29  NAU   D T   1       3.987  14.693  -7.589  1.00 23.51    -0.291 NA
HETATM   30  CAO   D T   1       4.458  13.950  -6.402  1.00 28.25     0.144 C 
HETATM   31  CAQ   D T   1       5.073  12.616  -6.773  1.00 25.74     0.127 C 
ENDBRANCH  12  26
TORSDOF 2
