REMARK  2 active torsions:
REMARK  status: ('A' for Active; 'I' for Inactive)
REMARK    1  A    between atoms: CAX_24  and  NBD_30 
REMARK    2  A    between atoms: CAY_25  and  CAZ_26 
ROOT
HETATM    1  CAE   D T   1      -8.139  -3.695 -13.066  1.00 15.33     0.002 A 
HETATM    2  CAF   D T   1      -8.221  -1.631 -11.889  1.00 33.04     0.002 A 
HETATM    3  CAG   D T   1      -9.497  -3.596 -13.364  1.00 21.87     0.017 A 
HETATM    4  CAH   D T   1      -9.590  -1.547 -12.181  1.00 18.39     0.017 A 
HETATM    5  CAK   D T   1      -5.278  -1.771 -11.606  1.00 18.99     0.102 A 
HETATM    6  CAL   D T   1      -2.158  -4.944 -11.285  1.00 11.90     0.124 A 
HETATM    7  CAM   D T   1      -5.478  -4.089 -12.046  1.00 18.90     0.104 A 
HETATM    8  NAS   D T   1      -3.996  -1.931 -11.307  1.00 18.39    -0.225 NA
HETATM    9  NAT   D T   1      -3.404  -5.288 -11.663  1.00 12.09    -0.162 NA
HETATM   10  CAV   D T   1      -7.465  -2.710 -12.340  1.00 21.96     0.003 A 
HETATM   11  CAW   D T   1      -6.076  -2.840 -12.016  1.00 19.91     0.038 A 
HETATM   12  CAX   D T   1     -10.233  -2.514 -12.915  1.00 28.57     0.056 A 
HETATM   13  CAZ   D T   1      -2.102  -3.620 -11.054  1.00 11.86     0.057 A 
HETATM   14  CBC   D T   1      -3.397  -3.143 -11.335  1.00 11.35     0.165 A 
HETATM   15  NBE   D T   1      -4.129  -4.264 -11.723  1.00 13.25    -0.211 N 
ENDROOT
BRANCH  13  16
HETATM   16  CAY   D T   1      -0.963  -2.896 -10.606  1.00 15.42     0.007 A 
HETATM   17  CAD   D T   1       0.268  -3.150 -11.199  1.00 12.05     0.021 A 
HETATM   18  CAC   D T   1       1.436  -2.531 -10.762  1.00 20.05     0.099 A 
HETATM   19  NAR   D T   1       1.435  -1.688  -9.760  1.00 15.05    -0.244 NA
HETATM   20  CBA   D T   1       0.261  -1.418  -9.116  1.00 17.37     0.081 A 
HETATM   21  CAI   D T   1       0.274  -0.545  -8.045  1.00 17.61     0.019 A 
HETATM   22  CBB   D T   1      -0.941  -2.004  -9.512  1.00 11.87     0.018 A 
HETATM   23  CAA   D T   1      -0.897  -0.245  -7.331  1.00 16.02     0.002 A 
HETATM   24  CAB   D T   1      -2.089  -0.811  -7.735  1.00 12.08     0.000 A 
HETATM   25  CAJ   D T   1      -2.105  -1.696  -8.791  1.00 13.82     0.002 A 
ENDBRANCH  13  16
BRANCH  12  26
HETATM   26  NBD   D T   1     -11.612  -2.404 -13.111  1.00 22.08    -0.344 N 
HETATM   27  CAP   D T   1     -12.442  -3.675 -13.178  1.00 30.90     0.127 C 
HETATM   28  CAN   D T   1     -13.952  -3.496 -13.527  1.00 24.56     0.144 C 
HETATM   29  NAU   D T   1     -14.362  -2.085 -13.632  1.00 23.51    -0.291 NA
HETATM   30  CAO   D T   1     -13.685  -1.165 -12.695  1.00 28.25     0.144 C 
HETATM   31  CAQ   D T   1     -12.199  -1.064 -12.972  1.00 25.74     0.127 C 
ENDBRANCH  12  26
TORSDOF 2
