REMARK  8 active torsions:
REMARK  status: ('A' for Active; 'I' for Inactive)
REMARK    1  A    between atoms: C20_8  and  C12_12 
REMARK    2  A    between atoms: C22_10  and  C19_16 
REMARK       I    between atoms: C22_10  and  N25_19 
REMARK    3  A    between atoms: C12_12  and  C18_15 
REMARK    4  A    between atoms: N25_19  and  C37_23 
REMARK    5  A    between atoms: C37_23  and  C38_24 
REMARK    6  A    between atoms: C38_24  and  N4_25 
REMARK    7  A    between atoms: N4_25  and  C39_26 
REMARK    8  A    between atoms: N4_25  and  C40_27 
ROOT
HETATM    1  C4    D T   1       5.708   1.525  12.497  1.00 24.36     0.052 C 
HETATM    2  C13   D T   1       5.439   4.400  10.144  1.00 24.57     0.002 A 
HETATM    3  C3    D T   1       5.868   5.638   9.390  1.00 24.44     0.033 C 
HETATM    4  C14   D T   1       5.374   2.610  11.508  1.00 24.54     0.064 A 
HETATM    5  C18   D T   1       4.198   3.794  10.045  1.00 24.01     0.077 A 
HETATM    6  C19   D T   1       6.194   3.651  11.081  1.00 25.13     0.069 A 
HETATM    7  N23   D T   1       4.188   2.703  10.884  1.00 24.05    -0.250 NA
ENDROOT
BRANCH   5   8
HETATM    8  C12   D T   1       3.152   4.240   9.206  1.00 23.99     0.024 C 
BRANCH   8   9
HETATM    9  C20   D T   1       1.891   3.686   9.072  1.00 22.41     0.061 A 
HETATM   10  C17   D T   1       0.867   4.211   8.144  1.00 22.55     0.025 A 
HETATM   11  C7    D T   1       0.859   5.282   7.248  1.00 22.62     0.031 A 
HETATM   12  C16   D T   1      -0.251   3.372   8.259  1.00 22.15     0.085 A 
HETATM   13  C15   D T   1      -0.270   5.524   6.484  1.00 22.57     0.140 A 
HETATM   14  C5    D T   1      -1.385   4.702   6.603  1.00 22.50     0.031 A 
HETATM   15  F29   D T   1      -0.287   6.561   5.619  1.00 23.29    -0.204 F 
HETATM   16  C6    D T   1      -1.380   3.635   7.485  1.00 22.36     0.021 A 
HETATM   17  N24   D T   1       0.016   2.393   9.207  1.00 22.12    -0.208 NA
HETATM   18  C21   D T   1       1.249   2.525   9.727  1.00 22.05     0.279 A 
HETATM   19  O27   D T   1       1.719   1.800  10.588  1.00 20.62    -0.265 OA
ENDBRANCH   8   9
ENDBRANCH   5   8
BRANCH   6  20
HETATM   20  C22   D T   1       7.588   3.935  11.513  1.00 26.35     0.276 C 
HETATM   21  N25   D T   1       8.011   3.560  12.742  1.00 28.46    -0.232 NA
HETATM   22  O28   D T   1       8.348   4.517  10.761  1.00 27.15    -0.266 OA
BRANCH  21  23
HETATM   23  C37   D T   1       9.381   3.824  13.206  1.00 29.92     0.164 C 
BRANCH  23  24
HETATM   24  C38   D T   1      10.301   2.682  12.766  1.00 30.92     0.276 C 
BRANCH  24  25
HETATM   25  N4    D T   1      10.276   1.607  13.775  1.00 32.03     0.139 N 
BRANCH  25  26
HETATM   26  C39   D T   1       9.475   0.415  13.423  1.00 32.13     0.250 C 
HETATM   27  C42   D T   1       9.428   0.127  11.916  1.00 32.46     0.037 C 
ENDBRANCH  25  26
BRANCH  25  28
HETATM   28  C40   D T   1      11.626   1.263  14.243  1.00 32.51     0.250 C 
HETATM   29  C41   D T   1      11.778   1.680  15.709  1.00 33.01     0.037 C 
ENDBRANCH  25  28
ENDBRANCH  24  25
ENDBRANCH  23  24
ENDBRANCH  21  23
ENDBRANCH   6  20
TORSDOF 8
