REMARK  8 active torsions:
REMARK  status: ('A' for Active; 'I' for Inactive)
REMARK    1  A    between atoms: C20_8  and  C12_12 
REMARK    2  A    between atoms: C22_10  and  C19_16 
REMARK       I    between atoms: C22_10  and  N25_19 
REMARK    3  A    between atoms: C12_12  and  C18_15 
REMARK    4  A    between atoms: N25_19  and  C37_23 
REMARK    5  A    between atoms: C37_23  and  C38_24 
REMARK    6  A    between atoms: C38_24  and  N4_25 
REMARK    7  A    between atoms: N4_25  and  C39_26 
REMARK    8  A    between atoms: N4_25  and  C40_27 
ROOT
HETATM    1  C4    D T   1       9.085   8.793   5.951  1.00 24.36     0.052 C 
HETATM    2  C13   D T   1       8.271  11.330   3.348  1.00 24.57     0.002 A 
HETATM    3  C3    D T   1       8.508  12.451   2.362  1.00 24.44     0.033 C 
HETATM    4  C14   D T   1       8.529   9.740   4.921  1.00 24.54     0.064 A 
HETATM    5  C18   D T   1       7.048  10.731   3.599  1.00 24.01     0.077 A 
HETATM    6  C19   D T   1       9.222  10.705   4.193  1.00 25.13     0.069 A 
HETATM    7  N23   D T   1       7.236   9.762   4.557  1.00 24.05    -0.250 NA
ENDROOT
BRANCH   5   8
HETATM    8  C12   D T   1       5.840  11.073   2.950  1.00 23.99     0.024 C 
BRANCH   8   9
HETATM    9  C20   D T   1       4.589  10.519   3.163  1.00 22.41     0.061 A 
HETATM   10  C17   D T   1       3.382  10.928   2.414  1.00 22.55     0.025 A 
HETATM   11  C7    D T   1       3.164  11.869   1.407  1.00 22.62     0.031 A 
HETATM   12  C16   D T   1       2.329  10.124   2.876  1.00 22.15     0.085 A 
HETATM   13  C15   D T   1       1.894  12.019   0.875  1.00 22.57     0.140 A 
HETATM   14  C5    D T   1       0.844  11.234   1.338  1.00 22.50     0.031 A 
HETATM   15  F29   D T   1       1.675  12.932  -0.097  1.00 23.29    -0.204 F 
HETATM   16  C6    D T   1       1.057  10.294   2.333  1.00 22.36     0.021 A 
HETATM   17  N24   D T   1       2.809   9.278   3.867  1.00 22.12    -0.208 NA
HETATM   18  C21   D T   1       4.122   9.465   4.089  1.00 22.05     0.279 A 
HETATM   19  O27   D T   1       4.777   8.855   4.919  1.00 20.62    -0.265 OA
ENDBRANCH   8   9
ENDBRANCH   5   8
BRANCH   6  20
HETATM   20  C22   D T   1      10.670  11.027   4.277  1.00 26.35     0.276 C 
HETATM   21  N25   D T   1      11.353  10.815   5.426  1.00 28.46    -0.232 NA
HETATM   22  O28   D T   1      11.243  11.495   3.309  1.00 27.15    -0.266 OA
BRANCH  21  23
HETATM   23  C37   D T   1      12.784  11.124   5.546  1.00 29.92     0.164 C 
BRANCH  23  24
HETATM   24  C38   D T   1      13.610   9.922   5.076  1.00 30.92     0.276 C 
BRANCH  24  25
HETATM   25  N4    D T   1      13.819   8.993   6.201  1.00 32.03     0.139 N 
BRANCH  25  26
HETATM   26  C39   D T   1      12.982   7.774   6.190  1.00 32.13     0.250 C 
HETATM   27  C42   D T   1      12.620   7.287   4.780  1.00 32.46     0.037 C 
ENDBRANCH  25  26
BRANCH  25  28
HETATM   28  C40   D T   1      15.244   8.699   6.412  1.00 32.51     0.250 C 
HETATM   29  C41   D T   1      15.698   9.307   7.743  1.00 33.01     0.037 C 
ENDBRANCH  25  28
ENDBRANCH  24  25
ENDBRANCH  23  24
ENDBRANCH  21  23
ENDBRANCH   6  20
TORSDOF 8
