REMARK  8 active torsions:
REMARK  status: ('A' for Active; 'I' for Inactive)
REMARK    1  A    between atoms: C20_8  and  C12_12 
REMARK    2  A    between atoms: C22_10  and  C19_16 
REMARK       I    between atoms: C22_10  and  N25_19 
REMARK    3  A    between atoms: C12_12  and  C18_15 
REMARK    4  A    between atoms: N25_19  and  C37_23 
REMARK    5  A    between atoms: C37_23  and  C38_24 
REMARK    6  A    between atoms: C38_24  and  N4_25 
REMARK    7  A    between atoms: N4_25  and  C39_26 
REMARK    8  A    between atoms: N4_25  and  C40_27 
ROOT
HETATM    1  C4    D T   1       3.230   8.552 -11.142  1.00 24.36     0.052 C 
HETATM    2  C13   D T   1       5.549   7.026  -8.658  1.00 24.57     0.002 A 
HETATM    3  C3    D T   1       6.628   6.967  -7.601  1.00 24.44     0.033 C 
HETATM    4  C14   D T   1       4.073   7.725 -10.208  1.00 24.54     0.064 A 
HETATM    5  C18   D T   1       4.874   5.932  -9.173  1.00 24.01     0.077 A 
HETATM    6  C19   D T   1       5.046   8.175  -9.318  1.00 25.13     0.069 A 
HETATM    7  N23   D T   1       3.977   6.388 -10.112  1.00 24.05    -0.250 NA
ENDROOT
BRANCH   5   8
HETATM    8  C12   D T   1       5.086   4.595  -8.768  1.00 23.99     0.024 C 
BRANCH   8   9
HETATM    9  C20   D T   1       4.453   3.463  -9.251  1.00 22.41     0.061 A 
HETATM   10  C17   D T   1       4.726   2.102  -8.744  1.00 22.55     0.025 A 
HETATM   11  C7    D T   1       5.590   1.609  -7.765  1.00 22.62     0.031 A 
HETATM   12  C16   D T   1       3.872   1.233  -9.440  1.00 22.15     0.085 A 
HETATM   13  C15   D T   1       5.614   0.251  -7.495  1.00 22.57     0.140 A 
HETATM   14  C5    D T   1       4.779  -0.615  -8.190  1.00 22.50     0.031 A 
HETATM   15  F29   D T   1       6.452  -0.232  -6.551  1.00 23.29    -0.204 F 
HETATM   16  C6    D T   1       3.914  -0.132  -9.158  1.00 22.36     0.021 A 
HETATM   17  N24   D T   1       3.121   1.969 -10.346  1.00 22.12    -0.208 NA
HETATM   18  C21   D T   1       3.419   3.280 -10.292  1.00 22.05     0.279 A 
HETATM   19  O27   D T   1       2.908   4.135 -10.997  1.00 20.62    -0.265 OA
ENDBRANCH   8   9
ENDBRANCH   5   8
BRANCH   6  20
HETATM   20  C22   D T   1       5.482   9.578  -9.096  1.00 26.35     0.276 C 
HETATM   21  N25   D T   1       5.386  10.490 -10.091  1.00 28.46    -0.232 NA
HETATM   22  O28   D T   1       5.937   9.906  -8.015  1.00 27.15    -0.266 OA
BRANCH  21  23
HETATM   23  C37   D T   1       5.809  11.885  -9.909  1.00 29.92     0.164 C 
BRANCH  23  24
HETATM   24  C38   D T   1       4.649  12.701  -9.330  1.00 30.92     0.276 C 
BRANCH  24  25
HETATM   25  N4    D T   1       3.802  13.207 -10.426  1.00 32.03     0.139 N 
BRANCH  25  26
HETATM   26  C39   D T   1       2.524  12.492 -10.632  1.00 32.13     0.250 C 
HETATM   27  C42   D T   1       1.934  11.901  -9.344  1.00 32.46     0.037 C 
ENDBRANCH  25  26
BRANCH  25  28
HETATM   28  C40   D T   1       3.629  14.665 -10.357  1.00 32.51     0.250 C 
HETATM   29  C41   D T   1       4.343  15.319 -11.544  1.00 33.01     0.037 C 
ENDBRANCH  25  28
ENDBRANCH  24  25
ENDBRANCH  23  24
ENDBRANCH  21  23
ENDBRANCH   6  20
TORSDOF 8
