REMARK  2 active torsions:
REMARK  status: ('A' for Active; 'I' for Inactive)
REMARK    1  A    between atoms: CAX_24  and  NBD_30 
REMARK    2  A    between atoms: CAY_25  and  CAZ_26 
ROOT
HETATM    1  CAE   D T 600      -1.038  -7.465  10.477  1.00 46.04     0.002 A 
HETATM    2  CAF   D T 600      -3.198  -8.160  11.311  1.00 45.69     0.002 A 
HETATM    3  CAG   D T 600      -0.524  -8.715  10.794  1.00 45.75     0.017 A 
HETATM    4  CAH   D T 600      -2.680  -9.414  11.612  1.00 45.50     0.017 A 
HETATM    5  CAK   D T 600      -2.179  -4.741  10.402  1.00 35.53     0.102 A 
HETATM    6  CAL   D T 600      -6.193  -3.048   9.383  1.00 33.49     0.124 A 
HETATM    7  CAM   D T 600      -4.299  -5.871  10.177  1.00 37.51     0.104 A 
HETATM    8  NAS   D T 600      -2.775  -3.575  10.110  1.00 41.55    -0.225 NA
HETATM    9  NAT   D T 600      -6.081  -4.362   9.611  1.00 34.74    -0.162 NA
HETATM   10  CAV   D T 600      -2.380  -7.170  10.747  1.00 43.90     0.003 A 
HETATM   11  CAW   D T 600      -2.933  -5.917  10.453  1.00 37.17     0.038 A 
HETATM   12  CAX   D T 600      -1.343  -9.689  11.363  1.00 47.52     0.056 A 
HETATM   13  CAZ   D T 600      -4.999  -2.483   9.519  1.00 33.41     0.057 A 
HETATM   14  CBC   D T 600      -4.114  -3.492   9.858  1.00 37.64     0.165 A 
HETATM   15  NBE   D T 600      -4.914  -4.652   9.879  1.00 36.80    -0.211 N 
ENDROOT
BRANCH  13  16
HETATM   16  CAY   D T 600      -4.697  -1.123   9.379  1.00 35.53     0.007 A 
HETATM   17  CAD   D T 600      -5.440  -0.182  10.112  1.00 33.79     0.021 A 
HETATM   18  CAC   D T 600      -5.151   1.171   9.978  1.00 29.73     0.099 A 
HETATM   19  NAR   D T 600      -4.192   1.577   9.163  1.00 26.72    -0.244 NA
HETATM   20  CBA   D T 600      -3.467   0.712   8.452  1.00 26.75     0.081 A 
HETATM   21  CAI   D T 600      -2.465   1.190   7.621  1.00 28.72     0.019 A 
HETATM   22  CBB   D T 600      -3.689  -0.653   8.536  1.00 30.35     0.018 A 
HETATM   23  CAA   D T 600      -1.680   0.328   6.875  1.00 24.81     0.002 A 
HETATM   24  CAB   D T 600      -1.907  -1.024   6.964  1.00 24.46     0.000 A 
HETATM   25  CAJ   D T 600      -2.902  -1.521   7.792  1.00 27.06     0.002 A 
ENDBRANCH  13  16
BRANCH  12  26
HETATM   26  NBD   D T 600      -0.849 -10.976  11.635  1.00 50.24    -0.344 N 
HETATM   27  CAP   D T 600      -1.807 -12.128  11.707  1.00 48.20     0.140 C 
HETATM   28  CAN   D T 600      -1.449 -13.159  10.641  1.00 44.02     0.314 C 
HETATM   29  NAU   D T 600      -0.000 -13.422  10.696  1.00 42.58     0.343 N 
HETATM   30  CAO   D T 600       0.773 -12.188  10.446  1.00 41.76     0.314 C 
HETATM   31  CAQ   D T 600       0.596 -11.253  11.626  1.00 40.50     0.140 C 
ENDBRANCH  12  26
TORSDOF 2
