REMARK  2 active torsions:
REMARK  status: ('A' for Active; 'I' for Inactive)
REMARK    1  A    between atoms: CAX_24  and  NBD_30 
REMARK    2  A    between atoms: CAY_25  and  CAZ_26 
ROOT
HETATM    1  CAE   D T 600      60.932 -49.234 -32.281  1.00 46.04     0.002 A 
HETATM    2  CAF   D T 600      63.049 -50.273 -31.749  1.00 45.69     0.002 A 
HETATM    3  CAG   D T 600      61.485 -48.728 -33.449  1.00 45.75     0.017 A 
HETATM    4  CAH   D T 600      63.591 -49.775 -32.928  1.00 45.50     0.017 A 
HETATM    5  CAK   D T 600      60.139 -49.929 -29.521  1.00 35.53     0.102 A 
HETATM    6  CAL   D T 600      60.887 -53.422 -26.827  1.00 33.49     0.124 A 
HETATM    7  CAM   D T 600      61.770 -51.695 -29.729  1.00 37.51     0.104 A 
HETATM    8  NAS   D T 600      59.692 -50.483 -28.383  1.00 41.55    -0.225 NA
HETATM    9  NAT   D T 600      61.642 -53.273 -27.922  1.00 34.74    -0.162 NA
HETATM   10  CAV   D T 600      61.716 -50.001 -31.409  1.00 43.90     0.003 A 
HETATM   11  CAW   D T 600      61.199 -50.519 -30.215  1.00 37.17     0.038 A 
HETATM   12  CAX   D T 600      62.814 -48.996 -33.773  1.00 47.52     0.056 A 
HETATM   13  CAZ   D T 600      60.011 -52.426 -26.767  1.00 33.41     0.057 A 
HETATM   14  CBC   D T 600      60.244 -51.620 -27.869  1.00 37.64     0.165 A 
HETATM   15  NBE   D T 600      61.303 -52.263 -28.541  1.00 36.80    -0.211 N 
ENDROOT
BRANCH  13  16
HETATM   16  CAY   D T 600      59.055 -52.212 -25.767  1.00 35.53     0.007 A 
HETATM   17  CAD   D T 600      59.470 -52.184 -24.424  1.00 33.79     0.021 A 
HETATM   18  CAC   D T 600      58.529 -51.976 -23.423  1.00 29.73     0.099 A 
HETATM   19  NAR   D T 600      57.251 -51.813 -23.723  1.00 26.72    -0.244 NA
HETATM   20  CBA   D T 600      56.822 -51.834 -24.986  1.00 26.75     0.081 A 
HETATM   21  CAI   D T 600      55.473 -51.647 -25.246  1.00 28.72     0.019 A 
HETATM   22  CBB   D T 600      57.699 -52.029 -26.041  1.00 30.35     0.018 A 
HETATM   23  CAA   D T 600      54.985 -51.648 -26.542  1.00 24.81     0.002 A 
HETATM   24  CAB   D T 600      55.862 -51.842 -27.582  1.00 24.46     0.000 A 
HETATM   25  CAJ   D T 600      57.215 -52.028 -27.342  1.00 27.06     0.002 A 
ENDBRANCH  13  16
BRANCH  12  26
HETATM   26  NBD   D T 600      63.367 -48.538 -34.981  1.00 50.24    -0.344 N 
HETATM   27  CAP   D T 600      64.544 -49.260 -35.567  1.00 48.20     0.140 C 
HETATM   28  CAN   D T 600      64.178 -49.801 -36.945  1.00 44.02     0.314 C 
HETATM   29  NAU   D T 600      63.528 -48.732 -37.723  1.00 42.58     0.343 N 
HETATM   30  CAO   D T 600      62.298 -48.261 -37.053  1.00 41.76     0.314 C 
HETATM   31  CAQ   D T 600      62.685 -47.516 -35.790  1.00 40.50     0.140 C 
ENDBRANCH  12  26
TORSDOF 2
