REMARK  2 active torsions:
REMARK  status: ('A' for Active; 'I' for Inactive)
REMARK    1  A    between atoms: CAX_24  and  NBD_30 
REMARK    2  A    between atoms: CAY_25  and  CAZ_26 
ROOT
HETATM    1  CAE   D T 600      -7.032  -6.256 -11.473  1.00 46.04     0.002 A 
HETATM    2  CAF   D T 600      -6.116  -8.193 -12.593  1.00 45.69     0.002 A 
HETATM    3  CAG   D T 600      -8.312  -6.696 -11.780  1.00 45.75     0.017 A 
HETATM    4  CAH   D T 600      -7.402  -8.635 -12.883  1.00 45.50     0.017 A 
HETATM    5  CAK   D T 600      -4.258  -5.240 -11.419  1.00 35.53     0.102 A 
HETATM    6  CAL   D T 600      -0.241  -7.117 -10.822  1.00 33.49     0.124 A 
HETATM    7  CAM   D T 600      -3.634  -7.570 -11.503  1.00 37.51     0.104 A 
HETATM    8  NAS   D T 600      -2.984  -4.914 -11.151  1.00 41.55    -0.225 NA
HETATM    9  NAT   D T 600      -1.290  -7.902 -11.092  1.00 34.74    -0.162 NA
HETATM   10  CAV   D T 600      -5.918  -6.995 -11.892  1.00 43.90     0.003 A 
HETATM   11  CAW   D T 600      -4.610  -6.579 -11.613  1.00 37.17     0.038 A 
HETATM   12  CAX   D T 600      -8.498  -7.884 -12.486  1.00 47.52     0.056 A 
HETATM   13  CAZ   D T 600      -0.644  -5.852 -10.788  1.00 33.41     0.057 A 
HETATM   14  CBC   D T 600      -2.002  -5.857 -11.060  1.00 37.64     0.165 A 
HETATM   15  NBE   D T 600      -2.309  -7.222 -11.229  1.00 36.80    -0.211 N 
ENDROOT
BRANCH  13  16
HETATM   16  CAY   D T 600       0.154  -4.726 -10.553  1.00 35.53     0.007 A 
HETATM   17  CAD   D T 600       1.310  -4.537 -11.330  1.00 33.79     0.021 A 
HETATM   18  CAC   D T 600       2.111  -3.425 -11.103  1.00 29.73     0.099 A 
HETATM   19  NAR   D T 600       1.799  -2.551 -10.160  1.00 26.72    -0.244 NA
HETATM   20  CBA   D T 600       0.709  -2.698  -9.405  1.00 26.75     0.081 A 
HETATM   21  CAI   D T 600       0.422  -1.747  -8.438  1.00 28.72     0.019 A 
HETATM   22  CBB   D T 600      -0.144  -3.777  -9.574  1.00 30.35     0.018 A 
HETATM   23  CAA   D T 600      -0.705  -1.852  -7.640  1.00 24.81     0.002 A 
HETATM   24  CAB   D T 600      -1.545  -2.925  -7.815  1.00 24.46     0.000 A 
HETATM   25  CAJ   D T 600      -1.276  -3.885  -8.778  1.00 27.06     0.002 A 
ENDBRANCH  13  16
BRANCH  12  26
HETATM   26  NBD   D T 600      -9.791  -8.368 -12.752  1.00 50.24    -0.344 N 
HETATM   27  CAP   D T 600      -9.987  -9.836 -12.990  1.00 48.20     0.140 C 
HETATM   28  CAN   D T 600     -10.931 -10.404 -11.935  1.00 44.02     0.314 C 
HETATM   29  NAU   D T 600     -12.110  -9.528 -11.824  1.00 42.58     0.343 N 
HETATM   30  CAO   D T 600     -11.719  -8.159 -11.428  1.00 41.76     0.314 C 
HETATM   31  CAQ   D T 600     -10.974  -7.511 -12.580  1.00 40.50     0.140 C 
ENDBRANCH  12  26
TORSDOF 2
