REMARK  2 active torsions:
REMARK  status: ('A' for Active; 'I' for Inactive)
REMARK    1  A    between atoms: CAX_24  and  NBD_30 
REMARK    2  A    between atoms: CAY_25  and  CAZ_26 
ROOT
HETATM    1  CAE   D T 600       6.487   4.252   9.250  1.00 46.04     0.002 A 
HETATM    2  CAF   D T 600       5.314   3.202  11.085  1.00 45.69     0.002 A 
HETATM    3  CAG   D T 600       7.693   3.995   9.887  1.00 45.75     0.017 A 
HETATM    4  CAH   D T 600       6.527   2.935  11.709  1.00 45.50     0.017 A 
HETATM    5  CAK   D T 600       3.826   5.178   8.360  1.00 35.53     0.102 A 
HETATM    6  CAL   D T 600      -0.274   3.388   8.338  1.00 33.49     0.124 A 
HETATM    7  CAM   D T 600       2.997   3.248   9.547  1.00 37.51     0.104 A 
HETATM    8  NAS   D T 600       2.612   5.358   7.816  1.00 41.55    -0.225 NA
HETATM    9  NAT   D T 600       0.677   2.824   9.092  1.00 34.74    -0.162 NA
HETATM   10  CAV   D T 600       5.281   3.870   9.853  1.00 43.90     0.003 A 
HETATM   11  CAW   D T 600       4.042   4.122   9.250  1.00 37.17     0.038 A 
HETATM   12  CAX   D T 600       7.715   3.339  11.116  1.00 47.52     0.056 A 
HETATM   13  CAZ   D T 600       0.239   4.440   7.710  1.00 33.41     0.057 A 
HETATM   14  CBC   D T 600       1.563   4.535   8.104  1.00 37.64     0.165 A 
HETATM   15  NBE   D T 600       1.735   3.445   8.981  1.00 36.80    -0.211 N 
ENDROOT
BRANCH  13  16
HETATM   16  CAY   D T 600      -0.435   5.306   6.842  1.00 35.53     0.007 A 
HETATM   17  CAD   D T 600      -1.633   5.904   7.271  1.00 33.79     0.021 A 
HETATM   18  CAC   D T 600      -2.312   6.763   6.416  1.00 29.73     0.099 A 
HETATM   19  NAR   D T 600      -1.846   7.014   5.203  1.00 26.72    -0.244 NA
HETATM   20  CBA   D T 600      -0.713   6.464   4.763  1.00 26.75     0.081 A 
HETATM   21  CAI   D T 600      -0.264   6.770   3.487  1.00 28.72     0.019 A 
HETATM   22  CBB   D T 600       0.026   5.603   5.558  1.00 30.35     0.018 A 
HETATM   23  CAA   D T 600       0.913   6.232   2.994  1.00 24.81     0.002 A 
HETATM   24  CAB   D T 600       1.640   5.379   3.789  1.00 24.46     0.000 A 
HETATM   25  CAJ   D T 600       1.207   5.064   5.069  1.00 27.06     0.002 A 
ENDBRANCH  13  16
BRANCH  12  26
HETATM   26  NBD   D T 600       8.933   3.022  11.741  1.00 50.24    -0.344 N 
HETATM   27  CAP   D T 600       8.980   1.883  12.717  1.00 48.20     0.140 C 
HETATM   28  CAN   D T 600       9.957   0.823  12.218  1.00 44.02     0.314 C 
HETATM   29  NAU   D T 600      11.213   1.479  11.816  1.00 42.58     0.343 N 
HETATM   30  CAO   D T 600      10.977   2.457  10.733  1.00 41.76     0.314 C 
HETATM   31  CAQ   D T 600      10.197   3.629  11.296  1.00 40.50     0.140 C 
ENDBRANCH  12  26
TORSDOF 2
