REMARK  2 active torsions:
REMARK  status: ('A' for Active; 'I' for Inactive)
REMARK    1  A    between atoms: CAX_24  and  NBD_30 
REMARK    2  A    between atoms: CAY_25  and  CAZ_26 
ROOT
HETATM    1  CAE   D T 600     -13.831  -0.383  -6.413  1.00 46.04     0.002 A 
HETATM    2  CAF   D T 600     -12.455  -0.843  -8.347  1.00 45.69     0.002 A 
HETATM    3  CAG   D T 600     -14.788  -1.264  -6.897  1.00 45.75     0.017 A 
HETATM    4  CAH   D T 600     -13.412  -1.735  -8.817  1.00 45.50     0.017 A 
HETATM    5  CAK   D T 600     -11.950   1.829  -5.866  1.00 35.53     0.102 A 
HETATM    6  CAL   D T 600      -7.527   2.361  -6.282  1.00 33.49     0.124 A 
HETATM    7  CAM   D T 600     -10.361   0.491  -7.094  1.00 37.51     0.104 A 
HETATM    8  NAS   D T 600     -10.955   2.640  -5.472  1.00 41.55    -0.225 NA
HETATM    9  NAT   D T 600      -8.119   1.334  -6.905  1.00 34.74    -0.162 NA
HETATM   10  CAV   D T 600     -12.658  -0.151  -7.144  1.00 43.90     0.003 A 
HETATM   11  CAW   D T 600     -11.674   0.739  -6.697  1.00 37.17     0.038 A 
HETATM   12  CAX   D T 600     -14.581  -1.939  -8.099  1.00 47.52     0.056 A 
HETATM   13  CAZ   D T 600      -8.447   3.057  -5.625  1.00 33.41     0.057 A 
HETATM   14  CBC   D T 600      -9.663   2.438  -5.862  1.00 37.64     0.165 A 
HETATM   15  NBE   D T 600      -9.331   1.343  -6.685  1.00 36.80    -0.211 N 
ENDROOT
BRANCH  13  16
HETATM   16  CAY   D T 600      -8.236   4.212  -4.863  1.00 35.53     0.007 A 
HETATM   17  CAD   D T 600      -7.555   5.296  -5.445  1.00 33.79     0.021 A 
HETATM   18  CAC   D T 600      -7.336   6.446  -4.697  1.00 29.73     0.099 A 
HETATM   19  NAR   D T 600      -7.755   6.525  -3.445  1.00 26.72    -0.244 NA
HETATM   20  CBA   D T 600      -8.404   5.516  -2.861  1.00 26.75     0.081 A 
HETATM   21  CAI   D T 600      -8.832   5.655  -1.549  1.00 28.72     0.019 A 
HETATM   22  CBB   D T 600      -8.667   4.339  -3.542  1.00 30.35     0.018 A 
HETATM   23  CAA   D T 600      -9.520   4.640  -0.907  1.00 24.81     0.002 A 
HETATM   24  CAB   D T 600      -9.776   3.475  -1.590  1.00 24.46     0.000 A 
HETATM   25  CAJ   D T 600      -9.359   3.319  -2.904  1.00 27.06     0.002 A 
ENDBRANCH  13  16
BRANCH  12  26
HETATM   26  NBD   D T 600     -15.516  -2.877  -8.568  1.00 50.24    -0.344 N 
HETATM   27  CAP   D T 600     -15.062  -3.959  -9.503  1.00 48.20     0.140 C 
HETATM   28  CAN   D T 600     -15.312  -5.322  -8.867  1.00 44.02     0.314 C 
HETATM   29  NAU   D T 600     -16.686  -5.359  -8.335  1.00 42.58     0.343 N 
HETATM   30  CAO   D T 600     -16.887  -4.312  -7.313  1.00 41.76     0.314 C 
HETATM   31  CAQ   D T 600     -16.868  -2.956  -7.992  1.00 40.50     0.140 C 
ENDBRANCH  12  26
TORSDOF 2
