REMARK  2 active torsions:
REMARK  status: ('A' for Active; 'I' for Inactive)
REMARK    1  A    between atoms: CAX_24  and  NBD_30 
REMARK    2  A    between atoms: CAY_25  and  CAZ_26 
ROOT
HETATM    1  CAE   D T 600      -7.874  -2.555 -12.304  1.00 46.04     0.002 A 
HETATM    2  CAF   D T 600      -7.549  -4.453 -13.765  1.00 45.69     0.002 A 
HETATM    3  CAG   D T 600      -9.205  -2.494 -12.695  1.00 45.75     0.017 A 
HETATM    4  CAH   D T 600      -8.886  -4.395 -14.140  1.00 45.50     0.017 A 
HETATM    5  CAK   D T 600      -4.931  -2.519 -12.045  1.00 35.53     0.102 A 
HETATM    6  CAL   D T 600      -1.765  -5.670 -11.794  1.00 33.49     0.124 A 
HETATM    7  CAM   D T 600      -5.074  -4.871 -12.565  1.00 37.51     0.104 A 
HETATM    8  NAS   D T 600      -3.640  -2.676 -11.713  1.00 41.55    -0.225 NA
HETATM    9  NAT   D T 600      -2.990  -6.012 -12.213  1.00 34.74    -0.162 NA
HETATM   10  CAV   D T 600      -7.027  -3.528 -12.849  1.00 43.90     0.003 A 
HETATM   11  CAW   D T 600      -5.676  -3.615 -12.490  1.00 37.17     0.038 A 
HETATM   12  CAX   D T 600      -9.711  -3.412 -13.614  1.00 47.52     0.056 A 
HETATM   13  CAZ   D T 600      -1.748  -4.370 -11.523  1.00 33.41     0.057 A 
HETATM   14  CBC   D T 600      -3.016  -3.886 -11.797  1.00 37.64     0.165 A 
HETATM   15  NBE   D T 600      -3.728  -5.026 -12.223  1.00 36.80    -0.211 N 
ENDROOT
BRANCH  13  16
HETATM   16  CAY   D T 600      -0.651  -3.624 -11.075  1.00 35.53     0.007 A 
HETATM   17  CAD   D T 600       0.554  -3.686 -11.796  1.00 33.79     0.021 A 
HETATM   18  CAC   D T 600       1.650  -2.952 -11.359  1.00 29.73     0.099 A 
HETATM   19  NAR   D T 600       1.569  -2.206 -10.269  1.00 26.72    -0.244 NA
HETATM   20  CBA   D T 600       0.442  -2.124  -9.561  1.00 26.75     0.081 A 
HETATM   21  CAI   D T 600       0.408  -1.318  -8.433  1.00 28.72     0.019 A 
HETATM   22  CBB   D T 600      -0.696  -2.820  -9.936  1.00 30.35     0.018 A 
HETATM   23  CAA   D T 600      -0.744  -1.193  -7.674  1.00 24.81     0.002 A 
HETATM   24  CAB   D T 600      -1.868  -1.886  -8.054  1.00 24.46     0.000 A 
HETATM   25  CAJ   D T 600      -1.854  -2.695  -9.180  1.00 27.06     0.002 A 
ENDBRANCH  13  16
BRANCH  12  26
HETATM   26  NBD   D T 600     -11.070  -3.397 -13.972  1.00 50.24    -0.344 N 
HETATM   27  CAP   D T 600     -11.706  -4.655 -14.485  1.00 48.20     0.140 C 
HETATM   28  CAN   D T 600     -12.848  -5.064 -13.561  1.00 44.02     0.314 C 
HETATM   29  NAU   D T 600     -13.693  -3.887 -13.293  1.00 42.58     0.343 N 
HETATM   30  CAO   D T 600     -12.915  -2.812 -12.642  1.00 41.76     0.314 C 
HETATM   31  CAQ   D T 600     -11.929  -2.248 -13.647  1.00 40.50     0.140 C 
ENDBRANCH  12  26
TORSDOF 2
