REMARK  2 active torsions:
REMARK  status: ('A' for Active; 'I' for Inactive)
REMARK    1  A    between atoms: CAX_24  and  NBD_30 
REMARK    2  A    between atoms: CAY_25  and  CAZ_26 
ROOT
HETATM    1  CAE   D T 600      -7.367  -8.800  -6.170  1.00 46.04     0.002 A 
HETATM    2  CAF   D T 600      -5.368  -9.922  -6.937  1.00 45.69     0.002 A 
HETATM    3  CAG   D T 600      -8.096  -9.957  -6.406  1.00 45.75     0.017 A 
HETATM    4  CAH   D T 600      -6.102 -11.082  -7.156  1.00 45.50     0.017 A 
HETATM    5  CAK   D T 600      -5.760  -6.323  -6.273  1.00 35.53     0.102 A 
HETATM    6  CAL   D T 600      -1.505  -5.302  -5.339  1.00 33.49     0.124 A 
HETATM    7  CAM   D T 600      -3.873  -7.792  -5.953  1.00 37.51     0.104 A 
HETATM    8  NAS   D T 600      -4.965  -5.263  -6.057  1.00 41.55    -0.225 NA
HETATM    9  NAT   D T 600      -1.850  -6.588  -5.477  1.00 34.74    -0.162 NA
HETATM   10  CAV   D T 600      -5.995  -8.766  -6.449  1.00 43.90     0.003 A 
HETATM   11  CAW   D T 600      -5.227  -7.614  -6.237  1.00 37.17     0.038 A 
HETATM   12  CAX   D T 600      -7.465 -11.098  -6.900  1.00 47.52     0.056 A 
HETATM   13  CAZ   D T 600      -2.580  -4.545  -5.523  1.00 33.41     0.057 A 
HETATM   14  CBC   D T 600      -3.632  -5.402  -5.799  1.00 37.64     0.165 A 
HETATM   15  NBE   D T 600      -3.051  -6.684  -5.734  1.00 36.80    -0.211 N 
ENDROOT
BRANCH  13  16
HETATM   16  CAY   D T 600      -2.636  -3.147  -5.479  1.00 35.53     0.007 A 
HETATM   17  CAD   D T 600      -1.740  -2.405  -6.269  1.00 33.79     0.021 A 
HETATM   18  CAC   D T 600      -1.784  -1.017  -6.230  1.00 29.73     0.099 A 
HETATM   19  NAR   D T 600      -2.653  -0.392  -5.453  1.00 26.72    -0.244 NA
HETATM   20  CBA   D T 600      -3.517  -1.063  -4.690  1.00 26.75     0.081 A 
HETATM   21  CAI   D T 600      -4.414  -0.359  -3.902  1.00 28.72     0.019 A 
HETATM   22  CBB   D T 600      -3.541  -2.449  -4.679  1.00 30.35     0.018 A 
HETATM   23  CAA   D T 600      -5.338  -1.014  -3.105  1.00 24.81     0.002 A 
HETATM   24  CAB   D T 600      -5.354  -2.388  -3.100  1.00 24.46     0.000 A 
HETATM   25  CAJ   D T 600      -4.467  -3.110  -3.883  1.00 27.06     0.002 A 
ENDBRANCH  13  16
BRANCH  12  26
HETATM   26  NBD   D T 600      -8.181 -12.293  -7.087  1.00 50.24    -0.344 N 
HETATM   27  CAP   D T 600      -7.443 -13.598  -7.072  1.00 48.20     0.140 C 
HETATM   28  CAN   D T 600      -7.974 -14.473  -5.941  1.00 44.02     0.314 C 
HETATM   29  NAU   D T 600      -9.446 -14.479  -5.990  1.00 42.58     0.343 N 
HETATM   30  CAO   D T 600      -9.988 -13.113  -5.831  1.00 41.76     0.314 C 
HETATM   31  CAQ   D T 600      -9.652 -12.308  -7.071  1.00 40.50     0.140 C 
ENDBRANCH  12  26
TORSDOF 2
