REMARK  2 active torsions:
REMARK  status: ('A' for Active; 'I' for Inactive)
REMARK    1  A    between atoms: C5_4  and  O7_13 
REMARK    2  A    between atoms: C8_10  and  O7_13 
ROOT
HETATM    1  O7    D T 262      -7.327 -24.263  -9.677  1.00 33.42    -0.304 OA
ENDROOT
BRANCH   1   2
HETATM    2  C5    D T 262      -6.613 -25.267  -9.001  1.00 32.62     0.125 A 
HETATM    3  C6    D T 262      -6.392 -26.494  -9.653  1.00 29.39     0.154 A 
HETATM    4  C1    D T 262      -5.667 -27.539  -8.993  1.00 31.49     0.041 A 
HETATM    5  O17   D T 262      -6.887 -26.645 -10.917  1.00 29.04    -0.188 OA
HETATM    6  C2    D T 262      -5.170 -27.331  -7.666  1.00 34.86     0.060 A 
HETATM    7  C3    D T 262      -5.400 -26.092  -7.013  1.00 33.50     0.014 A 
HETATM    8 CL14   D T 262      -4.316 -28.547  -6.873  1.00 29.54    -0.082 Cl
HETATM    9  C4    D T 262      -6.120 -25.049  -7.673  1.00 31.24     0.028 A 
ENDBRANCH   1   2
BRANCH   1  10
HETATM   10  C8    D T 262      -8.703 -24.135  -9.470  1.00 31.42     0.111 A 
HETATM   11  C9    D T 262      -9.372 -22.993 -10.060  1.00 37.59     0.081 A 
HETATM   12  C10   D T 262     -10.767 -22.818  -9.877  1.00 33.67     0.025 A 
HETATM   13 CL16   D T 262      -8.512 -21.830 -10.984  1.00 45.56    -0.080 Cl
HETATM   14  C11   D T 262     -11.483 -23.800  -9.098  1.00 34.31     0.059 A 
HETATM   15  C12   D T 262     -10.835 -24.921  -8.517  1.00 35.02     0.013 A 
HETATM   16 CL15   D T 262     -13.137 -23.593  -8.879  1.00 38.98    -0.082 Cl
HETATM   17  C13   D T 262      -9.447 -25.099  -8.696  1.00 36.05     0.026 A 
ENDBRANCH   1  10
TORSDOF 2
