REMARK  2 active torsions:
REMARK  status: ('A' for Active; 'I' for Inactive)
REMARK    1  A    between atoms: C5_4  and  O7_13 
REMARK    2  A    between atoms: C8_10  and  O7_13 
ROOT
HETATM    1  O7    D T 262       7.909   2.219  -5.743  1.00 33.42    -0.304 OA
ENDROOT
BRANCH   1   2
HETATM    2  C5    D T 262       7.886   2.166  -7.147  1.00 32.62     0.125 A 
HETATM    3  C6    D T 262       7.649   0.927  -7.771  1.00 29.39     0.154 A 
HETATM    4  C1    D T 262       7.618   0.837  -9.201  1.00 31.49     0.041 A 
HETATM    5  O17   D T 262       7.453  -0.164  -6.974  1.00 29.04    -0.188 OA
HETATM    6  C2    D T 262       7.832   2.012  -9.992  1.00 34.86     0.060 A 
HETATM    7  C3    D T 262       8.074   3.257  -9.355  1.00 33.50     0.014 A 
HETATM    8 CL14   D T 262       7.800   1.926 -11.674  1.00 29.54    -0.082 Cl
HETATM    9  C4    D T 262       8.101   3.347  -7.929  1.00 31.24     0.028 A 
ENDBRANCH   1   2
BRANCH   1  10
HETATM   10  C8    D T 262       9.129   2.127  -5.067  1.00 31.42     0.111 A 
HETATM   11  C9    D T 262       9.127   2.345  -3.635  1.00 37.59     0.081 A 
HETATM   12  C10   D T 262      10.340   2.264  -2.905  1.00 33.67     0.025 A 
HETATM   13 CL16   D T 262       7.680   2.706  -2.786  1.00 45.56    -0.080 Cl
HETATM   14  C11   D T 262      11.553   1.961  -3.627  1.00 34.31     0.059 A 
HETATM   15  C12   D T 262      11.563   1.746  -5.030  1.00 35.02     0.013 A 
HETATM   16 CL15   D T 262      12.992   1.865  -2.763  1.00 38.98    -0.082 Cl
HETATM   17  C13   D T 262      10.359   1.826  -5.760  1.00 36.05     0.026 A 
ENDBRANCH   1  10
TORSDOF 2
