REMARK  2 active torsions:
REMARK  status: ('A' for Active; 'I' for Inactive)
REMARK    1  A    between atoms: C5_4  and  O7_13 
REMARK    2  A    between atoms: C8_10  and  O7_13 
ROOT
HETATM    1  O7    D T 262       6.378   2.672  -6.679  1.00 33.42    -0.304 OA
ENDROOT
BRANCH   1   2
HETATM    2  C5    D T 262       6.219   2.475  -8.061  1.00 32.62     0.125 A 
HETATM    3  C6    D T 262       6.142   1.159  -8.552  1.00 29.39     0.154 A 
HETATM    4  C1    D T 262       5.978   0.923  -9.955  1.00 31.49     0.041 A 
HETATM    5  O17   D T 262       6.228   0.135  -7.652  1.00 29.04    -0.188 OA
HETATM    6  C2    D T 262       5.895   2.032 -10.858  1.00 34.86     0.060 A 
HETATM    7  C3    D T 262       5.977   3.357 -10.357  1.00 33.50     0.014 A 
HETATM    8 CL14   D T 262       5.703   1.775 -12.512  1.00 29.54    -0.082 Cl
HETATM    9  C4    D T 262       6.137   3.592  -8.956  1.00 31.24     0.028 A 
ENDBRANCH   1   2
BRANCH   1  10
HETATM   10  C8    D T 262       7.659   2.853  -6.150  1.00 31.42     0.111 A 
HETATM   11  C9    D T 262       7.768   3.209  -4.750  1.00 37.59     0.081 A 
HETATM   12  C10   D T 262       9.046   3.406  -4.167  1.00 33.67     0.025 A 
HETATM   13 CL16   D T 262       6.377   3.405  -3.764  1.00 45.56    -0.080 Cl
HETATM   14  C11   D T 262      10.211   3.240  -5.003  1.00 34.31     0.059 A 
HETATM   15  C12   D T 262      10.113   2.891  -6.375  1.00 35.02     0.013 A 
HETATM   16 CL15   D T 262      11.727   3.474  -4.313  1.00 38.98    -0.082 Cl
HETATM   17  C13   D T 262       8.843   2.695  -6.959  1.00 36.05     0.026 A 
ENDBRANCH   1  10
TORSDOF 2
