REMARK  2 active torsions:
REMARK  status: ('A' for Active; 'I' for Inactive)
REMARK    1  A    between atoms: C5_4  and  O7_13 
REMARK    2  A    between atoms: C8_10  and  O7_13 
ROOT
HETATM    1  O7    D T 262       7.637   2.012  -6.016  1.00 33.42    -0.304 OA
ENDROOT
BRANCH   1   2
HETATM    2  C5    D T 262       7.606   1.843  -7.410  1.00 32.62     0.125 A 
HETATM    3  C6    D T 262       7.428   0.548  -7.930  1.00 29.39     0.154 A 
HETATM    4  C1    D T 262       7.390   0.340  -9.347  1.00 31.49     0.041 A 
HETATM    5  O17   D T 262       7.296  -0.484  -7.044  1.00 29.04    -0.188 OA
HETATM    6  C2    D T 262       7.536   1.455 -10.233  1.00 34.86     0.060 A 
HETATM    7  C3    D T 262       7.718   2.759  -9.702  1.00 33.50     0.014 A 
HETATM    8 CL14   D T 262       7.495   1.231 -11.902  1.00 29.54    -0.082 Cl
HETATM    9  C4    D T 262       7.753   2.966  -8.289  1.00 31.24     0.028 A 
ENDBRANCH   1   2
BRANCH   1  10
HETATM   10  C8    D T 262       8.866   2.038  -5.351  1.00 31.42     0.111 A 
HETATM   11  C9    D T 262       8.864   2.371  -3.940  1.00 37.59     0.081 A 
HETATM   12  C10   D T 262      10.086   2.412  -3.222  1.00 33.67     0.025 A 
HETATM   13 CL16   D T 262       7.407   2.726  -3.105  1.00 45.56    -0.080 Cl
HETATM   14  C11   D T 262      11.307   2.113  -3.931  1.00 34.31     0.059 A 
HETATM   15  C12   D T 262      11.317   1.786  -5.312  1.00 35.02     0.013 A 
HETATM   16 CL15   D T 262      12.756   2.162  -3.081  1.00 38.98    -0.082 Cl
HETATM   17  C13   D T 262      10.104   1.745  -6.031  1.00 36.05     0.026 A 
ENDBRANCH   1  10
TORSDOF 2
