REMARK  3 active torsions:
REMARK  status: ('A' for Active; 'I' for Inactive)
REMARK    1  A    between atoms: C7_8  and  C10_12 
REMARK    2  A    between atoms: N9_10  and  C1'_11 
REMARK    3  A    between atoms: C4'_19  and  C5'_21 
ROOT
HETATM    1  N1    D T 577       1.326   2.222   9.235  1.00 85.37    -0.203 NA
HETATM    2  C2    D T 577       2.562   2.541   9.672  1.00 86.80     0.202 A 
HETATM    3  N3    D T 577       3.244   3.625   9.242  1.00 86.97    -0.206 NA
HETATM    4  C4    D T 577       2.715   4.475   8.330  1.00 86.50     0.151 A 
HETATM    5  C5    D T 577       1.369   4.189   7.808  1.00 85.57     0.078 A 
HETATM    6  C6    D T 577       0.681   2.981   8.326  1.00 85.00     0.188 A 
HETATM    7  N6    D T 577      -0.550   2.623   7.918  1.00 84.84    -0.127 N 
HETATM    8  C7    D T 577       1.149   5.302   6.867  1.00 85.86     0.083 A 
HETATM    9  C8    D T 577       2.269   6.101   6.887  1.00 86.68     0.084 A 
HETATM   10  N9    D T 577       3.171   5.597   7.753  1.00 87.05    -0.287 N 
ENDROOT
BRANCH  10  11
HETATM   11  C1'   D T 577       4.506   6.181   8.045  1.00 88.13     0.240 C 
HETATM   12  C2'   D T 577       5.511   5.385   7.240  1.00 88.30     0.234 C 
HETATM   13  O2'   D T 577       6.770   5.343   7.922  1.00 89.07    -0.216 OA
HETATM   14  C3'   D T 577       5.570   6.155   5.944  1.00 88.03     0.216 C 
HETATM   15  O3'   D T 577       6.836   5.990   5.312  1.00 88.96    -0.218 OA
HETATM   16  C4'   D T 577       5.315   7.602   6.352  1.00 88.80     0.183 C 
HETATM   17  O4'   D T 577       4.616   7.539   7.599  1.00 88.48    -0.331 OA
BRANCH  16  18
HETATM   18  C5'   D T 577       4.534   8.431   5.325  1.00 89.18     0.214 C 
HETATM   19  O5'   D T 577       4.572   7.832   4.013  1.00 89.91    -0.218 OA
ENDBRANCH  16  18
ENDBRANCH  10  11
BRANCH   8  20
HETATM   20  C10   D T 577      -0.121   5.400   6.099  1.00 85.71     0.298 C 
HETATM   21  N11   D T 577      -0.594   6.603   5.807  1.00 86.33    -0.102 N 
HETATM   22  O12   D T 577      -0.703   4.393   5.744  1.00 85.41    -0.264 OA
ENDBRANCH   8  20
TORSDOF 3
