REMARK  3 active torsions:
REMARK  status: ('A' for Active; 'I' for Inactive)
REMARK    1  A    between atoms: C7_8  and  C10_12 
REMARK    2  A    between atoms: N9_10  and  C1'_11 
REMARK    3  A    between atoms: C4'_19  and  C5'_21 
ROOT
HETATM    1  N1    D T 577       4.512   9.322   3.548  1.00 85.37    -0.203 NA
HETATM    2  C2    D T 577       5.810   9.682   3.632  1.00 86.80     0.202 A 
HETATM    3  N3    D T 577       6.352  10.678   2.898  1.00 86.97    -0.206 NA
HETATM    4  C4    D T 577       5.607  11.393   2.020  1.00 86.50     0.151 A 
HETATM    5  C5    D T 577       4.183  11.056   1.877  1.00 85.57     0.078 A 
HETATM    6  C6    D T 577       3.658   9.949   2.714  1.00 85.00     0.188 A 
HETATM    7  N6    D T 577       2.373   9.555   2.663  1.00 84.84    -0.127 N 
HETATM    8  C7    D T 577       3.727  12.020   0.860  1.00 85.86     0.083 A 
HETATM    9  C8    D T 577       4.805  12.795   0.499  1.00 86.68     0.084 A 
HETATM   10  N9    D T 577       5.894  12.410   1.193  1.00 87.05    -0.287 N 
ENDROOT
BRANCH  10  11
HETATM   11  C1'   D T 577       7.249  13.008   1.074  1.00 88.13     0.240 C 
HETATM   12  C2'   D T 577       8.052  12.085   0.182  1.00 88.30     0.234 C 
HETATM   13  O2'   D T 577       9.437  12.124   0.549  1.00 89.07    -0.216 OA
HETATM   14  C3'   D T 577       7.792  12.654  -1.190  1.00 88.03     0.216 C 
HETATM   15  O3'   D T 577       8.877  12.377  -2.070  1.00 88.96    -0.218 OA
HETATM   16  C4'   D T 577       7.612  14.150  -0.951  1.00 88.80     0.183 C 
HETATM   17  O4'   D T 577       7.226  14.284   0.420  1.00 88.48    -0.331 OA
BRANCH  16  18
HETATM   18  C5'   D T 577       6.597  14.831  -1.878  1.00 89.18     0.214 C 
HETATM   19  O5'   D T 577       6.338  14.043  -3.058  1.00 89.91    -0.218 OA
ENDBRANCH  16  18
ENDBRANCH  10  11
BRANCH   8  20
HETATM   20  C10   D T 577       2.311  12.024   0.405  1.00 85.71     0.298 C 
HETATM   21  N11   D T 577       1.760  13.179   0.058  1.00 86.33    -0.102 N 
HETATM   22  O12   D T 577       1.681  10.986   0.349  1.00 85.41    -0.264 OA
ENDBRANCH   8  20
TORSDOF 3
