REMARK  3 active torsions:
REMARK  status: ('A' for Active; 'I' for Inactive)
REMARK    1  A    between atoms: C7_8  and  C10_12 
REMARK    2  A    between atoms: N9_10  and  C1'_11 
REMARK    3  A    between atoms: C4'_19  and  C5'_21 
ROOT
HETATM    1  N1    D T 577       3.347   3.485  -9.618  1.00 85.37    -0.203 NA
HETATM    2  C2    D T 577       3.825   4.735  -9.440  1.00 86.80     0.202 A 
HETATM    3  N3    D T 577       4.825   5.032  -8.583  1.00 86.97    -0.206 NA
HETATM    4  C4    D T 577       5.424   4.071  -7.838  1.00 86.50     0.151 A 
HETATM    5  C5    D T 577       4.956   2.684  -7.981  1.00 85.57     0.078 A 
HETATM    6  C6    D T 577       3.852   2.434  -8.940  1.00 85.00     0.188 A 
HETATM    7  N6    D T 577       3.344   1.206  -9.148  1.00 84.84    -0.127 N 
HETATM    8  C7    D T 577       5.822   1.956  -7.037  1.00 85.86     0.083 A 
HETATM    9  C8    D T 577       6.669   2.868  -6.450  1.00 86.68     0.084 A 
HETATM   10  N9    D T 577       6.419   4.100  -6.937  1.00 87.05    -0.287 N 
ENDROOT
BRANCH  10  11
HETATM   11  C1'   D T 577       7.127   5.344  -6.542  1.00 88.13     0.240 C 
HETATM   12  C2'   D T 577       6.234   6.052  -5.546  1.00 88.30     0.234 C 
HETATM   13  O2'   D T 577       6.414   7.471  -5.641  1.00 89.07    -0.216 OA
HETATM   14  C3'   D T 577       6.705   5.487  -4.230  1.00 88.03     0.216 C 
HETATM   15  O3'   D T 577       6.479   6.411  -3.169  1.00 88.96    -0.218 OA
HETATM   16  C4'   D T 577       8.189   5.211  -4.446  1.00 88.80     0.183 C 
HETATM   17  O4'   D T 577       8.360   5.076  -5.860  1.00 88.48    -0.331 OA
BRANCH  16  18
HETATM   18  C5'   D T 577       8.729   3.980  -3.707  1.00 89.18     0.214 C 
HETATM   19  O5'   D T 577       7.861   3.583  -2.625  1.00 89.91    -0.218 OA
ENDBRANCH  16  18
ENDBRANCH  10  11
BRANCH   8  20
HETATM   20  C10   D T 577       5.677   0.487  -6.860  1.00 85.71     0.298 C 
HETATM   21  N11   D T 577       6.759  -0.229  -6.584  1.00 86.33    -0.102 N 
HETATM   22  O12   D T 577       4.585  -0.040  -6.961  1.00 85.41    -0.264 OA
ENDBRANCH   8  20
TORSDOF 3
