REMARK  3 active torsions:
REMARK  status: ('A' for Active; 'I' for Inactive)
REMARK    1  A    between atoms: C7_8  and  C10_12 
REMARK    2  A    between atoms: N9_10  and  C1'_11 
REMARK    3  A    between atoms: C4'_19  and  C5'_21 
ROOT
HETATM    1  N1    D T 577      -2.156  -8.151  -4.870  1.00 85.37    -0.203 NA
HETATM    2  C2    D T 577      -3.193  -8.909  -5.282  1.00 86.80     0.202 A 
HETATM    3  N3    D T 577      -4.394  -8.398  -5.628  1.00 86.97    -0.206 NA
HETATM    4  C4    D T 577      -4.632  -7.064  -5.586  1.00 86.50     0.151 A 
HETATM    5  C5    D T 577      -3.545  -6.176  -5.146  1.00 85.57     0.078 A 
HETATM    6  C6    D T 577      -2.255  -6.809  -4.780  1.00 85.00     0.188 A 
HETATM    7  N6    D T 577      -1.194  -6.093  -4.364  1.00 84.84    -0.127 N 
HETATM    8  C7    D T 577      -4.169  -4.843  -5.228  1.00 85.86     0.083 A 
HETATM    9  C8    D T 577      -5.462  -5.008  -5.669  1.00 86.68     0.084 A 
HETATM   10  N9    D T 577      -5.709  -6.318  -5.874  1.00 87.05    -0.287 N 
ENDROOT
BRANCH  10  11
HETATM   11  C1'   D T 577      -6.996  -6.889  -6.347  1.00 88.13     0.240 C 
HETATM   12  C2'   D T 577      -7.714  -7.412  -5.121  1.00 88.30     0.234 C 
HETATM   13  O2'   D T 577      -8.527  -8.540  -5.466  1.00 89.07    -0.216 OA
HETATM   14  C3'   D T 577      -8.522  -6.217  -4.684  1.00 88.03     0.216 C 
HETATM   15  O3'   D T 577      -9.694  -6.622  -3.984  1.00 88.96    -0.218 OA
HETATM   16  C4'   D T 577      -8.852  -5.488  -5.984  1.00 88.80     0.183 C 
HETATM   17  O4'   D T 577      -7.854  -5.896  -6.924  1.00 88.48    -0.331 OA
BRANCH  16  18
HETATM   18  C5'   D T 577      -8.907  -3.960  -5.868  1.00 89.18     0.214 C 
HETATM   19  O5'   D T 577      -9.070  -3.533  -4.500  1.00 89.91    -0.218 OA
ENDBRANCH  16  18
ENDBRANCH  10  11
BRANCH   8  20
HETATM   20  C10   D T 577      -3.400  -3.626  -4.859  1.00 85.71     0.298 C 
HETATM   21  N11   D T 577      -3.654  -2.495  -5.502  1.00 86.33    -0.102 N 
HETATM   22  O12   D T 577      -2.562  -3.672  -3.979  1.00 85.41    -0.264 OA
ENDBRANCH   8  20
TORSDOF 3
