REMARK  3 active torsions:
REMARK  status: ('A' for Active; 'I' for Inactive)
REMARK    1  A    between atoms: C7_8  and  C10_12 
REMARK    2  A    between atoms: N9_10  and  C1'_11 
REMARK    3  A    between atoms: C4'_19  and  C5'_21 
ROOT
HETATM    1  N1    D T 577      -8.724   0.296  -6.931  1.00 85.37    -0.203 NA
HETATM    2  C2    D T 577      -9.986  -0.095  -7.208  1.00 86.80     0.202 A 
HETATM    3  N3    D T 577     -11.080   0.526  -6.716  1.00 86.97    -0.206 NA
HETATM    4  C4    D T 577     -10.972   1.603  -5.902  1.00 86.50     0.151 A 
HETATM    5  C5    D T 577      -9.626   2.087  -5.557  1.00 85.57     0.078 A 
HETATM    6  C6    D T 577      -8.472   1.353  -6.133  1.00 85.00     0.188 A 
HETATM    7  N6    D T 577      -7.198   1.707  -5.884  1.00 84.84    -0.127 N 
HETATM    8  C7    D T 577      -9.914   3.235  -4.680  1.00 85.86     0.083 A 
HETATM    9  C8    D T 577     -11.280   3.351  -4.569  1.00 86.68     0.084 A 
HETATM   10  N9    D T 577     -11.879   2.386  -5.296  1.00 87.05    -0.287 N 
ENDROOT
BRANCH  10  11
HETATM   11  C1'   D T 577     -13.346   2.184  -5.421  1.00 88.13     0.240 C 
HETATM   12  C2'   D T 577     -13.710   1.063  -4.471  1.00 88.30     0.234 C 
HETATM   13  O2'   D T 577     -14.831   0.328  -4.980  1.00 89.07    -0.216 OA
HETATM   14  C3'   D T 577     -14.024   1.807  -3.198  1.00 88.03     0.216 C 
HETATM   15  O3'   D T 577     -14.953   1.080  -2.399  1.00 88.96    -0.218 OA
HETATM   16  C4'   D T 577     -14.592   3.142  -3.670  1.00 88.80     0.183 C 
HETATM   17  O4'   D T 577     -14.092   3.332  -4.996  1.00 88.48    -0.331 OA
BRANCH  16  18
HETATM   18  C5'   D T 577     -14.248   4.339  -2.775  1.00 89.18     0.214 C 
HETATM   19  O5'   D T 577     -13.838   3.921  -1.456  1.00 89.91    -0.218 OA
ENDBRANCH  16  18
ENDBRANCH  10  11
BRANCH   8  20
HETATM   20  C10   D T 577      -8.805   4.030  -4.090  1.00 85.71     0.298 C 
HETATM   21  N11   D T 577      -8.990   5.328  -3.891  1.00 86.33    -0.102 N 
HETATM   22  O12   D T 577      -7.755   3.493  -3.792  1.00 85.41    -0.264 OA
ENDBRANCH   8  20
TORSDOF 3
