REMARK  2 active torsions:
REMARK  status: ('A' for Active; 'I' for Inactive)
REMARK    1  A    between atoms: C5_4  and  O7_13 
REMARK    2  A    between atoms: C8_10  and  O7_13 
ROOT
HETATM    1  O7    D T 502       8.250   1.775  -5.889  1.00 50.24    -0.304 OA
ENDROOT
BRANCH   1   2
HETATM    2  C5    D T 502       8.085   1.681  -7.235  1.00 46.69     0.125 A 
HETATM    3  C6    D T 502       7.700   0.369  -7.816  1.00 45.87     0.154 A 
HETATM    4  C1    D T 502       7.511   0.272  -9.190  1.00 45.29     0.041 A 
HETATM    5  O17   D T 502       7.564  -0.699  -6.991  1.00 43.35    -0.188 OA
HETATM    6  C2    D T 502       7.702   1.425  -9.966  1.00 46.78     0.060 A 
HETATM    7  C3    D T 502       8.066   2.663  -9.437  1.00 44.62     0.014 A 
HETATM    8 CL14   D T 502       7.480   1.321 -11.733  1.00 50.36    -0.082 Cl
HETATM    9  C4    D T 502       8.250   2.784  -8.068  1.00 46.09     0.028 A 
ENDBRANCH   1   2
BRANCH   1  10
HETATM   10  C8    D T 502       9.467   1.706  -5.291  1.00 57.34     0.111 A 
HETATM   11  C9    D T 502       9.560   1.801  -3.812  1.00 60.97     0.081 A 
HETATM   12  C10   D T 502      10.787   1.742  -3.188  1.00 61.34     0.025 A 
HETATM   13 CL16   D T 502       8.123   2.016  -2.766  1.00 70.84    -0.080 Cl
HETATM   14  C11   D T 502      11.914   1.594  -3.958  1.00 60.50     0.059 A 
HETATM   15  C12   D T 502      11.863   1.499  -5.346  1.00 60.51     0.013 A 
HETATM   16 CL15   D T 502      13.452   1.529  -3.081  1.00 63.55    -0.082 Cl
HETATM   17  C13   D T 502      10.640   1.552  -6.023  1.00 58.81     0.026 A 
ENDBRANCH   1  10
TORSDOF 2
