REMARK  2 active torsions:
REMARK  status: ('A' for Active; 'I' for Inactive)
REMARK    1  A    between atoms: C5_4  and  O7_13 
REMARK    2  A    between atoms: C8_10  and  O7_13 
ROOT
HETATM    1  O7    D T 502      40.278  39.508  96.311  1.00 50.24    -0.304 OA
ENDROOT
BRANCH   1   2
HETATM    2  C5    D T 502      41.472  39.724  95.698  1.00 46.69     0.125 A 
HETATM    3  C6    D T 502      41.504  39.831  94.217  1.00 45.87     0.154 A 
HETATM    4  C1    D T 502      42.720  40.071  93.587  1.00 45.29     0.041 A 
HETATM    5  O17   D T 502      40.350  39.673  93.523  1.00 43.35    -0.188 OA
HETATM    6  C2    D T 502      43.866  40.193  94.387  1.00 46.78     0.060 A 
HETATM    7  C3    D T 502      43.853  40.092  95.778  1.00 44.62     0.014 A 
HETATM    8 CL14   D T 502      45.440  40.486  93.600  1.00 50.36    -0.082 Cl
HETATM    9  C4    D T 502      42.649  39.863  96.427  1.00 46.09     0.028 A 
ENDBRANCH   1   2
BRANCH   1  10
HETATM   10  C8    D T 502      39.864  38.276  96.702  1.00 57.34     0.111 A 
HETATM   11  C9    D T 502      38.536  38.123  97.350  1.00 60.97     0.081 A 
HETATM   12  C10   D T 502      38.104  36.881  97.762  1.00 61.34     0.025 A 
HETATM   13 CL16   D T 502      37.445  39.509  97.654  1.00 70.84    -0.080 Cl
HETATM   14  C11   D T 502      38.920  35.796  97.561  1.00 60.50     0.059 A 
HETATM   15  C12   D T 502      40.168  35.903  96.954  1.00 60.51     0.013 A 
HETATM   16 CL15   D T 502      38.293  34.236  98.120  1.00 63.55    -0.082 Cl
HETATM   17  C13   D T 502      40.649  37.142  96.518  1.00 58.81     0.026 A 
ENDBRANCH   1  10
TORSDOF 2
