REMARK  2 active torsions:
REMARK  status: ('A' for Active; 'I' for Inactive)
REMARK    1  A    between atoms: C5_4  and  O7_13 
REMARK    2  A    between atoms: C8_10  and  O7_13 
ROOT
HETATM    1  O7    D T 502       6.806   2.266  -6.815  1.00 50.24    -0.304 OA
ENDROOT
BRANCH   1   2
HETATM    2  C5    D T 502       6.522   2.011  -8.120  1.00 46.69     0.125 A 
HETATM    3  C6    D T 502       6.319   0.602  -8.543  1.00 45.87     0.154 A 
HETATM    4  C1    D T 502       6.010   0.338  -9.873  1.00 45.29     0.041 A 
HETATM    5  O17   D T 502       6.459  -0.385  -7.625  1.00 43.35    -0.188 OA
HETATM    6  C2    D T 502       5.912   1.423 -10.757  1.00 46.78     0.060 A 
HETATM    7  C3    D T 502       6.103   2.751 -10.375  1.00 44.62     0.014 A 
HETATM    8 CL14   D T 502       5.531   1.108 -12.471  1.00 50.36    -0.082 Cl
HETATM    9  C4    D T 502       6.403   3.037  -9.052  1.00 46.09     0.028 A 
ENDBRANCH   1   2
BRANCH   1  10
HETATM   10  C8    D T 502       8.071   2.461  -6.362  1.00 57.34     0.111 A 
HETATM   11  C9    D T 502       8.297   2.717  -4.916  1.00 60.97     0.081 A 
HETATM   12  C10   D T 502       9.573   2.927  -4.440  1.00 61.34     0.025 A 
HETATM   13 CL16   D T 502       6.960   2.792  -3.728  1.00 70.84    -0.080 Cl
HETATM   14  C11   D T 502      10.623   2.893  -5.323  1.00 60.50     0.059 A 
HETATM   15  C12   D T 502      10.447   2.653  -6.683  1.00 60.51     0.013 A 
HETATM   16 CL15   D T 502      12.230   3.174  -4.633  1.00 63.55    -0.082 Cl
HETATM   17  C13   D T 502       9.171   2.433  -7.213  1.00 58.81     0.026 A 
ENDBRANCH   1  10
TORSDOF 2
