REMARK  2 active torsions:
REMARK  status: ('A' for Active; 'I' for Inactive)
REMARK    1  A    between atoms: C5_4  and  O7_13 
REMARK    2  A    between atoms: C8_10  and  O7_13 
ROOT
HETATM    1  O7    D T 502       7.985   1.572  -6.241  1.00 50.24    -0.304 OA
ENDROOT
BRANCH   1   2
HETATM    2  C5    D T 502       7.811   1.356  -7.572  1.00 46.69     0.125 A 
HETATM    3  C6    D T 502       7.489  -0.018  -8.035  1.00 45.87     0.154 A 
HETATM    4  C1    D T 502       7.291  -0.239  -9.394  1.00 45.29     0.041 A 
HETATM    5  O17   D T 502       7.416  -1.018  -7.123  1.00 43.35    -0.188 OA
HETATM    6  C2    D T 502       7.414   0.853 -10.266  1.00 46.78     0.060 A 
HETATM    7  C3    D T 502       7.719   2.148  -9.847  1.00 44.62     0.014 A 
HETATM    8 CL14   D T 502       7.180   0.590 -12.015  1.00 50.36    -0.082 Cl
HETATM    9  C4    D T 502       7.910   2.392  -8.495  1.00 46.09     0.028 A 
ENDBRANCH   1   2
BRANCH   1  10
HETATM   10  C8    D T 502       9.209   1.615  -5.656  1.00 57.34     0.111 A 
HETATM   11  C9    D T 502       9.311   1.838  -4.191  1.00 60.97     0.081 A 
HETATM   12  C10   D T 502      10.547   1.894  -3.583  1.00 61.34     0.025 A 
HETATM   13 CL16   D T 502       7.876   2.066  -3.147  1.00 70.84    -0.080 Cl
HETATM   14  C11   D T 502      11.672   1.740  -4.353  1.00 60.50     0.059 A 
HETATM   15  C12   D T 502      11.612   1.526  -5.727  1.00 60.51     0.013 A 
HETATM   16 CL15   D T 502      13.220   1.827  -3.497  1.00 63.55    -0.082 Cl
HETATM   17  C13   D T 502      10.381   1.459  -6.389  1.00 58.81     0.026 A 
ENDBRANCH   1  10
TORSDOF 2
