REMARK  7 active torsions:
REMARK  status: ('A' for Active; 'I' for Inactive)
REMARK    1  A    between atoms: N3_2  and  C20_12 
REMARK    2  A    between atoms: C4_3  and  C5_4 
REMARK    3  A    between atoms: C13_9  and  N2_29 
REMARK    4  A    between atoms: C17_11  and  C19_33 
REMARK    5  A    between atoms: C20_12  and  C16_31 
REMARK    6  A    between atoms: C2_23  and  C3_24 
REMARK    7  A    between atoms: C9_25  and  C12_27 
REMARK       I    between atoms: C12_27  and  N2_29 
ROOT
HETATM    1  C12   D T   1      -3.315   5.820   3.075  1.00 29.52     0.279 C 
HETATM    2  O1    D T   1      -2.381   5.159   2.609  1.00 32.52    -0.265 OA
HETATM    3  N2    D T   1      -4.335   6.303   2.342  1.00 29.90    -0.208 NA
ENDROOT
BRANCH   1   4
HETATM    4  C9    D T   1      -3.356   6.127   4.542  1.00 29.36     0.059 A 
HETATM    5  C8    D T   1      -4.361   6.985   5.131  1.00 30.11     0.004 A 
HETATM    6  C7    D T   1      -4.351   7.248   6.534  1.00 28.94    -0.004 A 
HETATM    7  C6    D T   1      -3.343   6.656   7.375  1.00 28.77    -0.014 A 
HETATM    8  C5    D T   1      -2.334   5.789   6.771  1.00 26.45     0.038 A 
HETATM    9  C11   D T   1      -3.382   6.965   8.871  1.00 28.14     0.032 C 
HETATM   10  C10   D T   1      -2.366   5.546   5.377  1.00 27.23     0.013 A 
BRANCH   8  11
HETATM   11  C4    D T   1      -1.274   5.120   7.519  1.00 24.91    -0.058 C 
HETATM   12  C3    D T   1      -0.434   4.477   8.123  1.00 23.74    -0.039 C 
BRANCH  12  13
HETATM   13  C2    D T   1       0.474   3.662   8.820  1.00 23.00     0.145 A 
HETATM   14  N82   D T   1       1.808   3.898   9.018  1.00 25.15    -0.203 N 
HETATM   15  N81   D T   1       2.541   4.980   8.576  1.00 28.83    -0.162 NA
HETATM   16  C84   D T   1       2.267   2.786   9.771  1.00 26.40     0.165 A 
HETATM   17  C83   D T   1       3.833   4.916   8.931  1.00 28.11     0.121 A 
HETATM   18  C82   D T   1       4.439   3.866   9.682  1.00 26.65     0.026 A 
HETATM   19  C81   D T   1       3.659   2.803  10.104  1.00 28.42     0.041 A 
HETATM   20  N1    D T   1       1.283   1.939  10.015  1.00 27.29    -0.223 NA
HETATM   21  C1    D T   1       0.164   2.485   9.418  1.00 23.61     0.128 A 
ENDBRANCH  12  13
ENDBRANCH   8  11
ENDBRANCH   1   4
BRANCH   3  22
HETATM   22  C13   D T   1      -4.737   5.910   1.039  1.00 31.24     0.085 A 
HETATM   23  C14   D T   1      -5.503   6.833   0.286  1.00 32.94     0.019 A 
HETATM   24  C15   D T   1      -5.938   6.496  -1.035  1.00 32.88    -0.001 A 
HETATM   25  C16   D T   1      -5.609   5.218  -1.634  1.00 31.70     0.015 A 
HETATM   26  C17   D T   1      -4.814   4.259  -0.855  1.00 32.08     0.071 A 
HETATM   27  C18   D T   1      -4.402   4.634   0.460  1.00 32.72     0.023 A 
BRANCH  25  28
HETATM   28  C20   D T   1      -6.123   4.951  -3.069  1.00 29.95     0.277 C 
BRANCH  28  29
HETATM   29  N3    D T   1      -6.138   6.128  -3.948  1.00 31.16     0.146 N 
HETATM   30  C21   D T   1      -4.778   6.694  -4.199  1.00 32.15     0.286 C 
HETATM   31  C22   D T   1      -4.884   8.014  -4.994  1.00 31.08     0.286 C 
HETATM   32  N4    D T   1      -5.503   7.756  -6.310  1.00 32.74     0.143 N 
HETATM   33  C23   D T   1      -6.848   7.124  -6.143  1.00 30.79     0.286 C 
HETATM   34  C25   D T   1      -5.537   8.956  -7.134  1.00 30.23     0.285 C 
HETATM   35  C24   D T   1      -6.796   5.852  -5.240  1.00 28.48     0.286 C 
ENDBRANCH  28  29
ENDBRANCH  25  28
BRANCH  26  36
HETATM   36  C19   D T   1      -4.389   2.865  -1.368  1.00 33.23     0.419 C 
HETATM   37  F1    D T   1      -3.457   2.996  -2.295  1.00 33.40    -0.166 F 
HETATM   38  F2    D T   1      -3.869   2.101  -0.410  1.00 31.99    -0.166 F 
HETATM   39  F3    D T   1      -5.432   2.202  -1.875  1.00 36.12    -0.166 F 
ENDBRANCH  26  36
ENDBRANCH   3  22
TORSDOF 7
