REMARK  7 active torsions:
REMARK  status: ('A' for Active; 'I' for Inactive)
REMARK    1  A    between atoms: N3_2  and  C20_12 
REMARK    2  A    between atoms: C4_3  and  C5_4 
REMARK    3  A    between atoms: C13_9  and  N2_29 
REMARK    4  A    between atoms: C17_11  and  C19_33 
REMARK    5  A    between atoms: C20_12  and  C16_31 
REMARK    6  A    between atoms: C2_23  and  C3_24 
REMARK    7  A    between atoms: C9_25  and  C12_27 
REMARK       I    between atoms: C12_27  and  N2_29 
ROOT
HETATM    1  C12   D T   1       5.106  -3.744  -5.468  1.00 29.52     0.279 C 
HETATM    2  O1    D T   1       4.399  -2.990  -4.792  1.00 32.52    -0.265 OA
HETATM    3  N2    D T   1       5.385  -5.017  -5.133  1.00 29.90    -0.208 NA
ENDROOT
BRANCH   1   4
HETATM    4  C9    D T   1       5.711  -3.252  -6.749  1.00 29.36     0.059 A 
HETATM    5  C8    D T   1       6.634  -4.047  -7.530  1.00 30.11     0.004 A 
HETATM    6  C7    D T   1       7.185  -3.529  -8.740  1.00 28.94    -0.004 A 
HETATM    7  C6    D T   1       6.822  -2.212  -9.197  1.00 28.77    -0.014 A 
HETATM    8  C5    D T   1       5.887  -1.419  -8.402  1.00 26.45     0.038 A 
HETATM    9  C11   D T   1       7.435  -1.709 -10.503  1.00 28.14     0.032 C 
HETATM   10  C10   D T   1       5.357  -1.956  -7.205  1.00 27.23     0.013 A 
BRANCH   8  11
HETATM   11  C4    D T   1       5.431  -0.081  -8.767  1.00 24.91    -0.058 C 
HETATM   12  C3    D T   1       4.961   0.997  -9.087  1.00 23.74    -0.039 C 
BRANCH  12  13
HETATM   13  C2    D T   1       4.346   2.193  -9.493  1.00 23.00     0.145 A 
HETATM   14  N82   D T   1       4.670   3.462  -9.094  1.00 25.15    -0.203 N 
HETATM   15  N81   D T   1       5.664   3.834  -8.211  1.00 28.83    -0.162 NA
HETATM   16  C84   D T   1       3.759   4.304  -9.782  1.00 26.40     0.165 A 
HETATM   17  C83   D T   1       5.725   5.161  -8.023  1.00 28.11     0.121 A 
HETATM   18  C82   D T   1       4.880   6.129  -8.640  1.00 26.65     0.026 A 
HETATM   19  C81   D T   1       3.900   5.704  -9.521  1.00 28.42     0.041 A 
HETATM   20  N1    D T   1       2.944   3.599 -10.546  1.00 27.29    -0.223 NA
HETATM   21  C1    D T   1       3.309   2.280 -10.362  1.00 23.61     0.128 A 
ENDBRANCH  12  13
ENDBRANCH   8  11
ENDBRANCH   1   4
BRANCH   3  22
HETATM   22  C13   D T   1       4.713  -5.840  -4.193  1.00 31.24     0.085 A 
HETATM   23  C14   D T   1       5.428  -6.941  -3.660  1.00 32.94     0.019 A 
HETATM   24  C15   D T   1       4.805  -7.807  -2.707  1.00 32.88    -0.001 A 
HETATM   25  C16   D T   1       3.444  -7.586  -2.263  1.00 31.70     0.015 A 
HETATM   26  C17   D T   1       2.701  -6.444  -2.813  1.00 32.08     0.071 A 
HETATM   27  C18   D T   1       3.358  -5.604  -3.763  1.00 32.72     0.023 A 
BRANCH  25  28
HETATM   28  C20   D T   1       2.863  -8.577  -1.226  1.00 29.95     0.277 C 
BRANCH  28  29
HETATM   29  N3    D T   1       3.828  -9.069  -0.235  1.00 31.16     0.146 N 
HETATM   30  C21   D T   1       4.382  -7.989   0.636  1.00 32.15     0.286 C 
HETATM   31  C22   D T   1       5.501  -8.549   1.542  1.00 31.08     0.286 C 
HETATM   32  N4    D T   1       4.949  -9.591   2.431  1.00 32.74     0.143 N 
HETATM   33  C23   D T   1       4.315 -10.683   1.629  1.00 30.79     0.286 C 
HETATM   34  C25   D T   1       5.948 -10.082   3.369  1.00 30.23     0.285 C 
HETATM   35  C24   D T   1       3.263 -10.136   0.614  1.00 28.48     0.286 C 
ENDBRANCH  28  29
ENDBRANCH  25  28
BRANCH  26  36
HETATM   36  C19   D T   1       1.247  -6.087  -2.427  1.00 33.23     0.419 C 
HETATM   37  F1    D T   1       1.218  -5.607  -1.197  1.00 33.40    -0.166 F 
HETATM   38  F2    D T   1       0.722  -5.151  -3.214  1.00 31.99    -0.166 F 
HETATM   39  F3    D T   1       0.453  -7.158  -2.508  1.00 36.12    -0.166 F 
ENDBRANCH  26  36
ENDBRANCH   3  22
TORSDOF 7
