REMARK  7 active torsions:
REMARK  status: ('A' for Active; 'I' for Inactive)
REMARK    1  A    between atoms: N3_2  and  C20_12 
REMARK    2  A    between atoms: C4_3  and  C5_4 
REMARK    3  A    between atoms: C13_9  and  N2_29 
REMARK    4  A    between atoms: C17_11  and  C19_33 
REMARK    5  A    between atoms: C20_12  and  C16_31 
REMARK    6  A    between atoms: C2_23  and  C3_24 
REMARK    7  A    between atoms: C9_25  and  C12_27 
REMARK       I    between atoms: C12_27  and  N2_29 
ROOT
HETATM    1  C12   D T   1      -1.560  11.919  -1.853  1.00 29.52     0.279 C 
HETATM    2  O1    D T   1      -0.753  11.173  -2.418  1.00 32.52    -0.265 OA
HETATM    3  N2    D T   1      -2.716  12.333  -2.404  1.00 29.90    -0.208 NA
ENDROOT
BRANCH   1   4
HETATM    4  C9    D T   1      -1.275  12.418  -0.469  1.00 29.36     0.059 A 
HETATM    5  C8    D T   1      -2.124  13.377   0.204  1.00 30.11     0.004 A 
HETATM    6  C7    D T   1      -1.804  13.823   1.522  1.00 28.94    -0.004 A 
HETATM    7  C6    D T   1      -0.636  13.317   2.195  1.00 28.77    -0.014 A 
HETATM    8  C5    D T   1       0.214  12.346   1.507  1.00 26.45     0.038 A 
HETATM    9  C11   D T   1      -0.343  13.822   3.607  1.00 28.14     0.032 C 
HETATM   10  C10   D T   1      -0.126  11.923   0.200  1.00 27.23     0.013 A 
BRANCH   8  11
HETATM   11  C4    D T   1       1.412  11.749   2.089  1.00 24.91    -0.058 C 
HETATM   12  C3    D T   1       2.365  11.166   2.577  1.00 23.74    -0.039 C 
BRANCH  12  13
HETATM   13  C2    D T   1       3.403  10.423   3.162  1.00 23.00     0.145 A 
HETATM   14  N82   D T   1       4.748  10.641   3.030  1.00 25.15    -0.203 N 
HETATM   15  N81   D T   1       5.366  11.633   2.295  1.00 28.83    -0.162 NA
HETATM   16  C84   D T   1       5.361   9.625   3.807  1.00 26.40     0.165 A 
HETATM   17  C83   D T   1       6.705  11.576   2.364  1.00 28.11     0.121 A 
HETATM   18  C82   D T   1       7.460  10.616   3.100  1.00 26.65     0.026 A 
HETATM   19  C81   D T   1       6.792   9.643   3.823  1.00 28.42     0.041 A 
HETATM   20  N1    D T   1       4.454   8.849   4.374  1.00 27.29    -0.223 NA
HETATM   21  C1    D T   1       3.232   9.345   3.968  1.00 23.61     0.128 A 
ENDBRANCH  12  13
ENDBRANCH   8  11
ENDBRANCH   1   4
BRANCH   3  22
HETATM   22  C13   D T   1      -3.396  11.784  -3.522  1.00 31.24     0.085 A 
HETATM   23  C14   D T   1      -4.308  12.622  -4.208  1.00 32.94     0.019 A 
HETATM   24  C15   D T   1      -5.025  12.127  -5.342  1.00 32.88    -0.001 A 
HETATM   25  C16   D T   1      -4.838  10.771  -5.820  1.00 31.70     0.015 A 
HETATM   26  C17   D T   1      -3.891   9.900  -5.111  1.00 32.08     0.071 A 
HETATM   27  C18   D T   1      -3.198  10.432  -3.981  1.00 32.72     0.023 A 
BRANCH  25  28
HETATM   28  C20   D T   1      -5.656  10.333  -7.058  1.00 29.95     0.277 C 
BRANCH  28  29
HETATM   29  N3    D T   1      -5.864  11.383  -8.063  1.00 31.16     0.146 N 
HETATM   30  C21   D T   1      -4.593  11.869  -8.680  1.00 32.15     0.286 C 
HETATM   31  C22   D T   1      -4.870  13.075  -9.605  1.00 31.08     0.286 C 
HETATM   32  N4    D T   1      -5.765  12.664 -10.706  1.00 32.74     0.143 N 
HETATM   33  C23   D T   1      -7.041  12.102 -10.164  1.00 30.79     0.286 C 
HETATM   34  C25   D T   1      -5.979  13.746 -11.657  1.00 30.23     0.285 C 
HETATM   35  C24   D T   1      -6.792  10.960  -9.131  1.00 28.48     0.286 C 
ENDBRANCH  28  29
ENDBRANCH  25  28
BRANCH  26  36
HETATM   36  C19   D T   1      -3.591   8.437  -5.511  1.00 33.23     0.419 C 
HETATM   37  F1    D T   1      -2.887   8.416  -6.628  1.00 33.40    -0.166 F 
HETATM   38  F2    D T   1      -2.873   7.791  -4.595  1.00 31.99    -0.166 F 
HETATM   39  F3    D T   1      -4.721   7.746  -5.682  1.00 36.12    -0.166 F 
ENDBRANCH  26  36
ENDBRANCH   3  22
TORSDOF 7
