REMARK  7 active torsions:
REMARK  status: ('A' for Active; 'I' for Inactive)
REMARK    1  A    between atoms: N3_2  and  C20_12 
REMARK    2  A    between atoms: C4_3  and  C5_4 
REMARK    3  A    between atoms: C13_9  and  N2_29 
REMARK    4  A    between atoms: C17_11  and  C19_33 
REMARK    5  A    between atoms: C20_12  and  C16_31 
REMARK    6  A    between atoms: C2_23  and  C3_24 
REMARK    7  A    between atoms: C9_25  and  C12_27 
REMARK       I    between atoms: C12_27  and  N2_29 
ROOT
HETATM    1  C12   D T   1      -5.910   6.175  -1.398  1.00 29.52     0.279 C 
HETATM    2  O1    D T   1      -6.314   5.171  -0.803  1.00 32.52    -0.265 OA
HETATM    3  N2    D T   1      -5.240   7.183  -0.808  1.00 29.90    -0.208 NA
ENDROOT
BRANCH   1   4
HETATM    4  C9    D T   1      -6.160   6.324  -2.869  1.00 29.36     0.059 A 
HETATM    5  C8    D T   1      -5.809   7.522  -3.602  1.00 30.11     0.004 A 
HETATM    6  C7    D T   1      -6.074   7.613  -5.002  1.00 28.94    -0.004 A 
HETATM    7  C6    D T   1      -6.685   6.510  -5.697  1.00 28.77    -0.014 A 
HETATM    8  C5    D T   1      -7.033   5.304  -4.948  1.00 26.45     0.038 A 
HETATM    9  C11   D T   1      -6.940   6.657  -7.197  1.00 28.14     0.032 C 
HETATM   10  C10   D T   1      -6.761   5.241  -3.561  1.00 27.23     0.013 A 
BRANCH   8  11
HETATM   11  C4    D T   1      -7.640   4.117  -5.542  1.00 24.91    -0.058 C 
HETATM   12  C3    D T   1      -8.064   3.079  -6.021  1.00 23.74    -0.039 C 
BRANCH  12  13
HETATM   13  C2    D T   1      -8.461   1.852  -6.578  1.00 23.00     0.145 A 
HETATM   14  N82   D T   1      -9.731   1.342  -6.623  1.00 25.15    -0.203 N 
HETATM   15  N81   D T   1     -10.884   1.922  -6.134  1.00 28.83    -0.162 NA
HETATM   16  C84   D T   1      -9.597   0.091  -7.278  1.00 26.40     0.165 A 
HETATM   17  C83   D T   1     -11.973   1.164  -6.331  1.00 28.11     0.121 A 
HETATM   18  C82   D T   1     -11.996  -0.111  -6.969  1.00 26.65     0.026 A 
HETATM   19  C81   D T   1     -10.812  -0.647  -7.445  1.00 28.42     0.041 A 
HETATM   20  N1    D T   1      -8.339  -0.141  -7.610  1.00 27.29    -0.223 NA
HETATM   21  C1    D T   1      -7.630   0.959  -7.168  1.00 23.61     0.128 A 
ENDBRANCH  12  13
ENDBRANCH   8  11
ENDBRANCH   1   4
BRANCH   3  22
HETATM   22  C13   D T   1      -4.585   7.176   0.450  1.00 31.24     0.085 A 
HETATM   23  C14   D T   1      -4.359   8.426   1.076  1.00 32.94     0.019 A 
HETATM   24  C15   D T   1      -3.703   8.485   2.346  1.00 32.88    -0.001 A 
HETATM   25  C16   D T   1      -3.259   7.283   3.022  1.00 31.70     0.015 A 
HETATM   26  C17   D T   1      -3.493   5.985   2.376  1.00 32.08     0.071 A 
HETATM   27  C18   D T   1      -4.149   5.970   1.107  1.00 32.72     0.023 A 
BRANCH  25  28
HETATM   28  C20   D T   1      -2.564   7.453   4.395  1.00 29.95     0.277 C 
BRANCH  28  29
HETATM   29  N3    D T   1      -3.097   8.541   5.225  1.00 31.16     0.146 N 
HETATM   30  C21   D T   1      -4.525   8.339   5.617  1.00 32.15     0.286 C 
HETATM   31  C22   D T   1      -5.064   9.588   6.350  1.00 31.08     0.286 C 
HETATM   32  N4    D T   1      -4.294   9.809   7.591  1.00 32.74     0.143 N 
HETATM   33  C23   D T   1      -2.837   9.956   7.286  1.00 30.79     0.286 C 
HETATM   34  C25   D T   1      -4.828  10.922   8.363  1.00 30.23     0.285 C 
HETATM   35  C24   D T   1      -2.287   8.766   6.439  1.00 28.48     0.286 C 
ENDBRANCH  28  29
ENDBRANCH  25  28
BRANCH  26  36
HETATM   36  C19   D T   1      -3.076   4.626   2.983  1.00 33.23     0.419 C 
HETATM   37  F1    D T   1      -3.857   4.337   4.009  1.00 33.40    -0.166 F 
HETATM   38  F2    D T   1      -3.195   3.620   2.119  1.00 31.99    -0.166 F 
HETATM   39  F3    D T   1      -1.803   4.650   3.384  1.00 36.12    -0.166 F 
ENDBRANCH  26  36
ENDBRANCH   3  22
TORSDOF 7
