REMARK  7 active torsions:
REMARK  status: ('A' for Active; 'I' for Inactive)
REMARK    1  A    between atoms: N3_2  and  C20_12 
REMARK    2  A    between atoms: C4_3  and  C5_4 
REMARK    3  A    between atoms: C13_9  and  N2_29 
REMARK    4  A    between atoms: C17_11  and  C19_33 
REMARK    5  A    between atoms: C20_12  and  C16_31 
REMARK    6  A    between atoms: C2_23  and  C3_24 
REMARK    7  A    between atoms: C9_25  and  C12_27 
REMARK       I    between atoms: C12_27  and  N2_29 
ROOT
HETATM    1  C12   D T   1       2.890  -2.979  -7.784  1.00 29.52     0.279 C 
HETATM    2  O1    D T   1       2.688  -2.416  -6.704  1.00 32.52    -0.265 OA
HETATM    3  N2    D T   1       2.188  -4.041  -8.223  1.00 29.90    -0.208 NA
ENDROOT
BRANCH   1   4
HETATM    4  C9    D T   1       3.972  -2.484  -8.696  1.00 29.36     0.059 A 
HETATM    5  C8    D T   1       4.330  -3.163  -9.923  1.00 30.11     0.004 A 
HETATM    6  C7    D T   1       5.372  -2.650 -10.752  1.00 28.94    -0.004 A 
HETATM    7  C6    D T   1       6.072  -1.448 -10.377  1.00 28.77    -0.014 A 
HETATM    8  C5    D T   1       5.701  -0.769  -9.138  1.00 26.45     0.038 A 
HETATM    9  C11   D T   1       7.175  -0.939 -11.305  1.00 28.14     0.032 C 
HETATM   10  C10   D T   1       4.665  -1.300  -8.333  1.00 27.23     0.013 A 
BRANCH   8  11
HETATM   11  C4    D T   1       6.324   0.462  -8.661  1.00 24.91    -0.058 C 
HETATM   12  C3    D T   1       6.759   1.535  -8.279  1.00 23.74    -0.039 C 
BRANCH  12  13
HETATM   13  C2    D T   1       7.187   2.813  -7.883  1.00 23.00     0.145 A 
HETATM   14  N82   D T   1       8.132   3.109  -6.938  1.00 25.15    -0.203 N 
HETATM   15  N81   D T   1       8.861   2.219  -6.176  1.00 28.83    -0.162 NA
HETATM   16  C84   D T   1       8.191   4.527  -6.913  1.00 26.40     0.165 A 
HETATM   17  C83   D T   1       9.708   2.826  -5.332  1.00 28.11     0.121 A 
HETATM   18  C82   D T   1       9.878   4.234  -5.193  1.00 26.65     0.026 A 
HETATM   19  C81   D T   1       9.124   5.085  -5.983  1.00 28.42     0.041 A 
HETATM   20  N1    D T   1       7.347   5.053  -7.782  1.00 27.29    -0.223 NA
HETATM   21  C1    D T   1       6.717   3.982  -8.385  1.00 23.61     0.128 A 
ENDBRANCH  12  13
ENDBRANCH   8  11
ENDBRANCH   1   4
BRANCH   3  22
HETATM   22  C13   D T   1       0.933  -4.510  -7.758  1.00 31.24     0.085 A 
HETATM   23  C14   D T   1       0.606  -5.864  -8.015  1.00 32.94     0.019 A 
HETATM   24  C15   D T   1      -0.646  -6.397  -7.572  1.00 32.88    -0.001 A 
HETATM   25  C16   D T   1      -1.601  -5.579  -6.852  1.00 31.70     0.015 A 
HETATM   26  C17   D T   1      -1.264  -4.174  -6.583  1.00 32.08     0.071 A 
HETATM   27  C18   D T   1      -0.006  -3.681  -7.045  1.00 32.72     0.023 A 
BRANCH  25  28
HETATM   28  C20   D T   1      -2.924  -6.250  -6.411  1.00 29.95     0.277 C 
BRANCH  28  29
HETATM   29  N3    D T   1      -2.798  -7.657  -6.009  1.00 31.16     0.146 N 
HETATM   30  C21   D T   1      -1.929  -7.852  -4.809  1.00 32.15     0.286 C 
HETATM   31  C22   D T   1      -1.713  -9.358  -4.540  1.00 31.08     0.286 C 
HETATM   32  N4    D T   1      -3.009 -10.004  -4.254  1.00 32.74     0.143 N 
HETATM   33  C23   D T   1      -3.961  -9.796  -5.389  1.00 30.79     0.286 C 
HETATM   34  C25   D T   1      -2.844 -11.408  -3.902  1.00 30.23     0.285 C 
HETATM   35  C24   D T   1      -4.110  -8.289  -5.767  1.00 28.48     0.286 C 
ENDBRANCH  28  29
ENDBRANCH  25  28
BRANCH  26  36
HETATM   36  C19   D T   1      -2.184  -3.190  -5.826  1.00 33.23     0.419 C 
HETATM   37  F1    D T   1      -2.214  -3.505  -4.544  1.00 33.40    -0.166 F 
HETATM   38  F2    D T   1      -1.761  -1.931  -5.900  1.00 31.99    -0.166 F 
HETATM   39  F3    D T   1      -3.425  -3.216  -6.321  1.00 36.12    -0.166 F 
ENDBRANCH  26  36
ENDBRANCH   3  22
TORSDOF 7
