REMARK  2 active torsions:
REMARK  status: ('A' for Active; 'I' for Inactive)
REMARK    1  A    between atoms: C5_4  and  O7_13 
REMARK    2  A    between atoms: C8_10  and  O7_13 
ROOT
HETATM    1  O7    D T 801       2.692  21.655 300.043  1.00 44.91    -0.304 OA
ENDROOT
BRANCH   1   2
HETATM    2  C5    D T 801       2.695  22.408 298.894  1.00 45.35     0.125 A 
HETATM    3  C6    D T 801       2.550  23.818 299.032  1.00 44.30     0.154 A 
HETATM    4  C1    D T 801       2.534  24.628 297.837  1.00 43.93     0.041 A 
HETATM    5  O17   D T 801       2.422  24.403 300.245  1.00 43.09    -0.188 OA
HETATM    6  C2    D T 801       2.665  23.961 296.577  1.00 44.08     0.060 A 
HETATM    7  C3    D T 801       2.811  22.554 296.417  1.00 44.17     0.014 A 
HETATM    8 CL14   D T 801       2.641  24.922 295.146  1.00 45.88    -0.082 Cl
HETATM    9  C4    D T 801       2.825  21.774 297.604  1.00 45.15     0.028 A 
ENDBRANCH   1   2
BRANCH   1  10
HETATM   10  C8    D T 801       1.571  21.047 300.602  1.00 47.49     0.111 A 
HETATM   11  C9    D T 801       1.767  20.144 301.713  1.00 48.15     0.081 A 
HETATM   12  C10   D T 801       0.654  19.495 302.323  1.00 48.95     0.025 A 
HETATM   13 CL16   D T 801       3.374  19.809 302.356  1.00 47.31    -0.080 Cl
HETATM   14  C11   D T 801      -0.671  19.750 301.815  1.00 49.51     0.059 A 
HETATM   15  C12   D T 801      -0.889  20.642 300.712  1.00 49.76     0.013 A 
HETATM   16 CL15   D T 801      -2.032  18.974 302.538  1.00 51.18    -0.082 Cl
HETATM   17  C13   D T 801       0.220  21.274 300.122  1.00 48.54     0.026 A 
ENDBRANCH   1  10
TORSDOF 2
