REMARK  2 active torsions:
REMARK  status: ('A' for Active; 'I' for Inactive)
REMARK    1  A    between atoms: C5_4  and  O7_13 
REMARK    2  A    between atoms: C8_10  and  O7_13 
ROOT
HETATM    1  O7    D T 801       6.572   2.440  -7.035  1.00 44.91    -0.304 OA
ENDROOT
BRANCH   1   2
HETATM    2  C5    D T 801       6.344   2.217  -8.371  1.00 45.35     0.125 A 
HETATM    3  C6    D T 801       6.190   0.866  -8.795  1.00 44.30     0.154 A 
HETATM    4  C1    D T 801       5.966   0.607 -10.198  1.00 43.93     0.041 A 
HETATM    5  O17   D T 801       6.255  -0.164  -7.921  1.00 43.09    -0.188 OA
HETATM    6  C2    D T 801       5.913   1.730 -11.084  1.00 44.08     0.060 A 
HETATM    7  C3    D T 801       6.065   3.087 -10.681  1.00 44.17     0.014 A 
HETATM    8 CL14   D T 801       5.652   1.427 -12.761  1.00 45.88    -0.082 Cl
HETATM    9  C4    D T 801       6.284   3.322  -9.298  1.00 45.15     0.028 A 
ENDBRANCH   1   2
BRANCH   1  10
HETATM   10  C8    D T 801       7.826   2.569  -6.444  1.00 47.49     0.111 A 
HETATM   11  C9    D T 801       7.890   2.977  -5.060  1.00 48.15     0.081 A 
HETATM   12  C10   D T 801       9.148   3.124  -4.406  1.00 48.95     0.025 A 
HETATM   13 CL16   D T 801       6.430   3.308  -4.128  1.00 47.31    -0.080 Cl
HETATM   14  C11   D T 801      10.357   2.861  -5.145  1.00 49.51     0.059 A 
HETATM   15  C12   D T 801      10.318   2.456  -6.521  1.00 49.76     0.013 A 
HETATM   16 CL15   D T 801      11.891   3.034  -4.373  1.00 51.18    -0.082 Cl
HETATM   17  C13   D T 801       9.069   2.316  -7.151  1.00 48.54     0.026 A 
ENDBRANCH   1  10
TORSDOF 2
