REMARK  2 active torsions:
REMARK  status: ('A' for Active; 'I' for Inactive)
REMARK    1  A    between atoms: C5_4  and  O7_13 
REMARK    2  A    between atoms: C8_10  and  O7_13 
ROOT
HETATM    1  O7    D T 801       7.828   1.750  -6.349  1.00 44.91    -0.304 OA
ENDROOT
BRANCH   1   2
HETATM    2  C5    D T 801       7.724   1.558  -7.706  1.00 45.35     0.125 A 
HETATM    3  C6    D T 801       7.462   0.235  -8.164  1.00 44.30     0.154 A 
HETATM    4  C1    D T 801       7.364   0.007  -9.586  1.00 43.93     0.041 A 
HETATM    5  O17   D T 801       7.311  -0.797  -7.303  1.00 43.09    -0.188 OA
HETATM    6  C2    D T 801       7.539   1.130 -10.456  1.00 44.08     0.060 A 
HETATM    7  C3    D T 801       7.801   2.459 -10.019  1.00 44.17     0.014 A 
HETATM    8 CL14   D T 801       7.429   0.863 -12.155  1.00 45.88    -0.082 Cl
HETATM    9  C4    D T 801       7.893   2.665  -8.617  1.00 45.15     0.028 A 
ENDBRANCH   1   2
BRANCH   1  10
HETATM   10  C8    D T 801       9.017   1.730  -5.624  1.00 47.49     0.111 A 
HETATM   11  C9    D T 801       8.975   2.126  -4.235  1.00 48.15     0.081 A 
HETATM   12  C10   D T 801      10.163   2.123  -3.446  1.00 48.95     0.025 A 
HETATM   13 CL16   D T 801       7.471   2.623  -3.463  1.00 47.31    -0.080 Cl
HETATM   14  C11   D T 801      11.407   1.723  -4.054  1.00 49.51     0.059 A 
HETATM   15  C12   D T 801      11.472   1.328  -5.433  1.00 49.76     0.013 A 
HETATM   16 CL15   D T 801      12.857   1.714  -3.118  1.00 51.18    -0.082 Cl
HETATM   17  C13   D T 801      10.291   1.336  -6.196  1.00 48.54     0.026 A 
ENDBRANCH   1  10
TORSDOF 2
