REMARK  2 active torsions:
REMARK  status: ('A' for Active; 'I' for Inactive)
REMARK    1  A    between atoms: C5_4  and  O7_13 
REMARK    2  A    between atoms: C8_10  and  O7_13 
ROOT
HETATM    1  O7    D T 801       8.108   1.986  -6.075  1.00 44.91    -0.304 OA
ENDROOT
BRANCH   1   2
HETATM    2  C5    D T 801       8.010   1.914  -7.444  1.00 45.35     0.125 A 
HETATM    3  C6    D T 801       7.684   0.651  -8.014  1.00 44.30     0.154 A 
HETATM    4  C1    D T 801       7.592   0.548  -9.451  1.00 43.93     0.041 A 
HETATM    5  O17   D T 801       7.470  -0.441  -7.245  1.00 43.09    -0.188 OA
HETATM    6  C2    D T 801       7.835   1.730 -10.222  1.00 44.08     0.060 A 
HETATM    7  C3    D T 801       8.162   3.002  -9.672  1.00 44.17     0.014 A 
HETATM    8 CL14   D T 801       7.732   1.613 -11.938  1.00 45.88    -0.082 Cl
HETATM    9  C4    D T 801       8.248   3.083  -8.256  1.00 45.15     0.028 A 
ENDBRANCH   1   2
BRANCH   1  10
HETATM   10  C8    D T 801       9.285   1.842  -5.346  1.00 47.49     0.111 A 
HETATM   11  C9    D T 801       9.248   2.120  -3.928  1.00 48.15     0.081 A 
HETATM   12  C10   D T 801      10.425   1.988  -3.134  1.00 48.95     0.025 A 
HETATM   13 CL16   D T 801       7.763   2.630  -3.128  1.00 47.31    -0.080 Cl
HETATM   14  C11   D T 801      11.654   1.575  -3.765  1.00 49.51     0.059 A 
HETATM   15  C12   D T 801      11.714   1.294  -5.171  1.00 49.76     0.013 A 
HETATM   16 CL15   D T 801      13.089   1.410  -2.822  1.00 51.18    -0.082 Cl
HETATM   17  C13   D T 801      10.544   1.429  -5.940  1.00 48.54     0.026 A 
ENDBRANCH   1  10
TORSDOF 2
