REMARK  2 active torsions:
REMARK  status: ('A' for Active; 'I' for Inactive)
REMARK    1  A    between atoms: C5_4  and  O7_13 
REMARK    2  A    between atoms: C8_10  and  O7_13 
ROOT
HETATM    1  O7    D T 801       6.723   2.498  -7.107  1.00 34.56    -0.304 OA
ENDROOT
BRANCH   1   2
HETATM    2  C5    D T 801       6.502   2.246  -8.441  1.00 33.66     0.125 A 
HETATM    3  C6    D T 801       6.339   0.892  -8.829  1.00 32.08     0.154 A 
HETATM    4  C1    D T 801       6.122   0.596 -10.217  1.00 31.11     0.041 A 
HETATM    5  O17   D T 801       6.391  -0.112  -7.926  1.00 34.11    -0.188 OA
HETATM    6  C2    D T 801       6.081   1.684 -11.134  1.00 31.49     0.060 A 
HETATM    7  C3    D T 801       6.238   3.052 -10.768  1.00 31.32     0.014 A 
HETATM    8 CL14   D T 801       5.836   1.319 -12.815  1.00 29.53    -0.082 Cl
HETATM    9  C4    D T 801       6.452   3.326  -9.389  1.00 31.98     0.028 A 
ENDBRANCH   1   2
BRANCH   1  10
HETATM   10  C8    D T 801       7.959   2.646  -6.483  1.00 36.70     0.111 A 
HETATM   11  C9    D T 801       7.973   3.148  -5.138  1.00 37.64     0.081 A 
HETATM   12  C10   D T 801       9.190   3.331  -4.431  1.00 39.25     0.025 A 
HETATM   13 CL16   D T 801       6.492   3.554  -4.307  1.00 38.51    -0.080 Cl
HETATM   14  C11   D T 801      10.429   2.999  -5.085  1.00 40.14     0.059 A 
HETATM   15  C12   D T 801      10.452   2.493  -6.428  1.00 40.20     0.013 A 
HETATM   16 CL15   D T 801      11.903   3.205  -4.251  1.00 39.51    -0.082 Cl
HETATM   17  C13   D T 801       9.219   2.322  -7.110  1.00 38.62     0.026 A 
ENDBRANCH   1  10
TORSDOF 2
