REMARK  2 active torsions:
REMARK  status: ('A' for Active; 'I' for Inactive)
REMARK    1  A    between atoms: C5_4  and  O7_13 
REMARK    2  A    between atoms: C8_10  and  O7_13 
ROOT
HETATM    1  O7    D T 801       8.006   1.769  -6.416  1.00 34.56    -0.304 OA
ENDROOT
BRANCH   1   2
HETATM    2  C5    D T 801       7.902   1.548  -7.770  1.00 33.66     0.125 A 
HETATM    3  C6    D T 801       7.623   0.225  -8.193  1.00 32.08     0.154 A 
HETATM    4  C1    D T 801       7.524  -0.040  -9.601  1.00 31.11     0.041 A 
HETATM    5  O17   D T 801       7.457  -0.781  -7.306  1.00 34.11    -0.188 OA
HETATM    6  C2    D T 801       7.711   1.048 -10.500  1.00 31.49     0.060 A 
HETATM    7  C3    D T 801       7.989   2.386 -10.098  1.00 31.32     0.014 A 
HETATM    8 CL14   D T 801       7.608   0.719 -12.203  1.00 29.53    -0.082 Cl
HETATM    9  C4    D T 801       8.083   2.629  -8.701  1.00 31.98     0.028 A 
ENDBRANCH   1   2
BRANCH   1  10
HETATM   10  C8    D T 801       9.176   1.767  -5.660  1.00 36.70     0.111 A 
HETATM   11  C9    D T 801       9.105   2.260  -4.314  1.00 37.64     0.081 A 
HETATM   12  C10   D T 801      10.251   2.294  -3.478  1.00 39.25     0.025 A 
HETATM   13 CL16   D T 801       7.601   2.838  -3.640  1.00 38.51    -0.080 Cl
HETATM   14  C11   D T 801      11.506   1.818  -4.002  1.00 40.14     0.059 A 
HETATM   15  C12   D T 801      11.613   1.316  -5.342  1.00 40.20     0.013 A 
HETATM   16 CL15   D T 801      12.895   1.844  -3.012  1.00 39.51    -0.082 Cl
HETATM   17  C13   D T 801      10.450   1.296  -6.155  1.00 38.62     0.026 A 
ENDBRANCH   1  10
TORSDOF 2
