REMARK  2 active torsions:
REMARK  status: ('A' for Active; 'I' for Inactive)
REMARK    1  A    between atoms: C5_4  and  O7_13 
REMARK    2  A    between atoms: C8_10  and  O7_13 
ROOT
HETATM    1  O7    D T 801       8.275   1.998  -6.135  1.00 34.56    -0.304 OA
ENDROOT
BRANCH   1   2
HETATM    2  C5    D T 801       8.178   1.897  -7.503  1.00 33.66     0.125 A 
HETATM    3  C6    D T 801       7.837   0.629  -8.038  1.00 32.08     0.154 A 
HETATM    4  C1    D T 801       7.743   0.487  -9.463  1.00 31.11     0.041 A 
HETATM    5  O17   D T 801       7.609  -0.437  -7.239  1.00 34.11    -0.188 OA
HETATM    6  C2    D T 801       7.996   1.634 -10.267  1.00 31.49     0.060 A 
HETATM    7  C3    D T 801       8.336   2.919  -9.753  1.00 31.32     0.014 A 
HETATM    8 CL14   D T 801       7.898   1.453 -11.993  1.00 29.53    -0.082 Cl
HETATM    9  C4    D T 801       8.425   3.040  -8.339  1.00 31.98     0.028 A 
ENDBRANCH   1   2
BRANCH   1  10
HETATM   10  C8    D T 801       9.434   1.874  -5.372  1.00 36.70     0.111 A 
HETATM   11  C9    D T 801       9.370   2.257  -3.990  1.00 37.64     0.081 A 
HETATM   12  C10   D T 801      10.506   2.163  -3.144  1.00 39.25     0.025 A 
HETATM   13 CL16   D T 801       7.889   2.854  -3.283  1.00 38.51    -0.080 Cl
HETATM   14  C11   D T 801      11.741   1.668  -3.695  1.00 40.14     0.059 A 
HETATM   15  C12   D T 801      11.840   1.274  -5.071  1.00 40.20     0.013 A 
HETATM   16 CL15   D T 801      13.117   1.539  -2.694  1.00 39.51    -0.082 Cl
HETATM   17  C13   D T 801      10.688   1.381  -5.893  1.00 38.62     0.026 A 
ENDBRANCH   1  10
TORSDOF 2
