REMARK  2 active torsions:
REMARK  status: ('A' for Active; 'I' for Inactive)
REMARK    1  A    between atoms: C5_4  and  O7_13 
REMARK    2  A    between atoms: C8_10  and  O7_13 
ROOT
HETATM    1  O7    D T 801       2.685  21.574 299.971  1.00 34.56    -0.304 OA
ENDROOT
BRANCH   1   2
HETATM    2  C5    D T 801       2.679  22.351 298.836  1.00 33.66     0.125 A 
HETATM    3  C6    D T 801       2.546  23.752 299.008  1.00 32.08     0.154 A 
HETATM    4  C1    D T 801       2.521  24.588 297.841  1.00 31.11     0.041 A 
HETATM    5  O17   D T 801       2.437  24.306 300.236  1.00 34.11    -0.188 OA
HETATM    6  C2    D T 801       2.633  23.962 296.568  1.00 31.49     0.060 A 
HETATM    7  C3    D T 801       2.771  22.558 296.370  1.00 31.32     0.014 A 
HETATM    8 CL14   D T 801       2.584  24.977 295.158  1.00 29.53    -0.082 Cl
HETATM    9  C4    D T 801       2.794  21.746 297.537  1.00 31.98     0.028 A 
ENDBRANCH   1   2
BRANCH   1  10
HETATM   10  C8    D T 801       1.589  20.939 300.550  1.00 36.70     0.111 A 
HETATM   11  C9    D T 801       1.842  19.977 301.585  1.00 37.64     0.081 A 
HETATM   12  C10   D T 801       0.782  19.284 302.225  1.00 39.25     0.025 A 
HETATM   13 CL16   D T 801       3.469  19.617 302.108  1.00 38.51    -0.080 Cl
HETATM   14  C11   D T 801      -0.572  19.563 301.821  1.00 40.14     0.059 A 
HETATM   15  C12   D T 801      -0.862  20.520 300.792  1.00 40.20     0.013 A 
HETATM   16 CL15   D T 801      -1.862  18.747 302.582  1.00 39.51    -0.082 Cl
HETATM   17  C13   D T 801       0.219  21.196 300.169  1.00 38.62     0.026 A 
ENDBRANCH   1  10
TORSDOF 2
