REMARK  2 active torsions:
REMARK  status: ('A' for Active; 'I' for Inactive)
REMARK    1  A    between atoms: C5_4  and  O7_13 
REMARK    2  A    between atoms: C8_10  and  O7_13 
ROOT
HETATM    1  O7    D T 502       8.029   2.131  -6.218  0.75 16.91    -0.304 OA
ENDROOT
BRANCH   1   2
HETATM    2  C5    D T 502       7.930   2.007  -7.657  0.75 15.30     0.125 A 
HETATM    3  C6    D T 502       7.564   0.719  -8.180  0.75 14.99     0.154 A 
HETATM    4  C1    D T 502       7.441   0.547  -9.577  0.75 14.19     0.041 A 
HETATM    5  O17   D T 502       7.340  -0.305  -7.340  0.75 14.56    -0.188 OA
HETATM    6  C2    D T 502       7.680   1.636 -10.408  0.75 11.95     0.060 A 
HETATM    7  C3    D T 502       8.045   2.908  -9.933  0.75 13.64     0.014 A 
HETATM    8 CL14   D T 502       7.511   1.440 -12.095  0.75  1.02    -0.082 Cl
HETATM    9  C4    D T 502       8.164   3.059  -8.475  0.75 15.27     0.028 A 
ENDBRANCH   1   2
BRANCH   1  10
HETATM   10  C8    D T 502       9.227   1.971  -5.498  0.75 15.53     0.111 A 
HETATM   11  C9    D T 502       9.471   2.892  -4.458  0.75 16.45     0.081 A 
HETATM   12  C10   D T 502      10.643   2.812  -3.675  0.75 14.07     0.025 A 
HETATM   13 CL16   D T 502       8.325   4.167  -4.105  0.75  3.69    -0.080 Cl
HETATM   14  C11   D T 502      11.589   1.778  -3.947  0.75 16.23     0.059 A 
HETATM   15  C12   D T 502      11.375   0.833  -4.987  0.75 16.59     0.013 A 
HETATM   16 CL15   D T 502      13.019   1.671  -2.999  0.75  7.17    -0.082 Cl
HETATM   17  C13   D T 502      10.193   0.926  -5.766  0.75 15.83     0.026 A 
ENDBRANCH   1  10
TORSDOF 2
