REMARK  2 active torsions:
REMARK  status: ('A' for Active; 'I' for Inactive)
REMARK    1  A    between atoms: C5_4  and  O7_13 
REMARK    2  A    between atoms: C8_10  and  O7_13 
ROOT
HETATM    1  O7    D T 502       7.782   1.848  -6.496  0.75 16.91    -0.304 OA
ENDROOT
BRANCH   1   2
HETATM    2  C5    D T 502       7.675   1.602  -7.918  0.75 15.30     0.125 A 
HETATM    3  C6    D T 502       7.367   0.259  -8.330  0.75 14.99     0.154 A 
HETATM    4  C1    D T 502       7.239  -0.033  -9.705  0.75 14.19     0.041 A 
HETATM    5  O17   D T 502       7.201  -0.702  -7.406  0.75 14.56    -0.188 OA
HETATM    6  C2    D T 502       7.417   0.993 -10.626  0.75 11.95     0.060 A 
HETATM    7  C3    D T 502       7.724   2.316 -10.262  0.75 13.64     0.014 A 
HETATM    8 CL14   D T 502       7.241   0.651 -12.289  0.75  1.02    -0.082 Cl
HETATM    9  C4    D T 502       7.850   2.593  -8.823  0.75 15.27     0.028 A 
ENDBRANCH   1   2
BRANCH   1  10
HETATM   10  C8    D T 502       8.993   1.806  -5.782  0.75 15.53     0.111 A 
HETATM   11  C9    D T 502       9.203   2.820  -4.824  0.75 16.45     0.081 A 
HETATM   12  C10   D T 502      10.384   2.861  -4.053  0.75 14.07     0.025 A 
HETATM   13 CL16   D T 502       7.999   4.064  -4.561  0.75  3.69    -0.080 Cl
HETATM   14  C11   D T 502      11.377   1.854  -4.253  0.75 16.23     0.059 A 
HETATM   15  C12   D T 502      11.199   0.817  -5.209  0.75 16.59     0.013 A 
HETATM   16 CL15   D T 502      12.820   1.893  -3.319  0.75  7.17    -0.082 Cl
HETATM   17  C13   D T 502      10.006   0.790  -5.976  0.75 15.83     0.026 A 
ENDBRANCH   1  10
TORSDOF 2
