REMARK  2 active torsions:
REMARK  status: ('A' for Active; 'I' for Inactive)
REMARK    1  A    between atoms: C5_4  and  O7_13 
REMARK    2  A    between atoms: C8_10  and  O7_13 
ROOT
HETATM    1  O7    D T 502       6.511   2.534  -7.142  0.75 16.91    -0.304 OA
ENDROOT
BRANCH   1   2
HETATM    2  C5    D T 502       6.287   2.253  -8.544  0.75 15.30     0.125 A 
HETATM    3  C6    D T 502       6.101   0.876  -8.915  0.75 14.99     0.154 A 
HETATM    4  C1    D T 502       5.866   0.548 -10.269  0.75 14.19     0.041 A 
HETATM    5  O17   D T 502       6.148  -0.082  -7.975  0.75 14.56    -0.188 OA
HETATM    6  C2    D T 502       5.823   1.573 -11.207  0.75 11.95     0.060 A 
HETATM    7  C3    D T 502       6.006   2.929 -10.883  0.75 13.64     0.014 A 
HETATM    8 CL14   D T 502       5.518   1.185 -12.841  0.75  1.02    -0.082 Cl
HETATM    9  C4    D T 502       6.247   3.243  -9.466  0.75 15.27     0.028 A 
ENDBRANCH   1   2
BRANCH   1  10
HETATM   10  C8    D T 502       7.786   2.647  -6.559  0.75 15.53     0.111 A 
HETATM   11  C9    D T 502       7.971   3.695  -5.633  0.75 16.45     0.081 A 
HETATM   12  C10   D T 502       9.213   3.887  -4.990  0.75 14.07     0.025 A 
HETATM   13 CL16   D T 502       6.662   4.791  -5.249  0.75  3.69    -0.080 Cl
HETATM   14  C11   D T 502      10.293   3.003  -5.289  0.75 16.23     0.059 A 
HETATM   15  C12   D T 502      10.141   1.936  -6.217  0.75 16.59     0.013 A 
HETATM   16 CL15   D T 502      11.810   3.228  -4.513  0.75  7.17    -0.082 Cl
HETATM   17  C13   D T 502       8.887   1.755  -6.855  0.75 15.83     0.026 A 
ENDBRANCH   1  10
TORSDOF 2
