REMARK  2 active torsions:
REMARK  status: ('A' for Active; 'I' for Inactive)
REMARK    1  A    between atoms: C5_4  and  O7_13 
REMARK    2  A    between atoms: C8_10  and  O7_13 
ROOT
HETATM    1  O7    D T 502      32.525  29.549-223.570  0.75 16.91    -0.304 OA
ENDROOT
BRANCH   1   2
HETATM    2  C5    D T 502      33.898  29.119-223.728  0.75 15.30     0.125 A 
HETATM    3  C6    D T 502      34.203  28.306-224.874  0.75 14.99     0.154 A 
HETATM    4  C1    D T 502      35.530  27.870-225.082  0.75 14.19     0.041 A 
HETATM    5  O17   D T 502      33.228  27.973-225.736  0.75 14.56    -0.188 OA
HETATM    6  C2    D T 502      36.507  28.241-224.165  0.75 11.95     0.060 A 
HETATM    7  C3    D T 502      36.246  29.029-223.030  0.75 13.64     0.014 A 
HETATM    8 CL14   D T 502      38.117  27.735-224.423  0.75  1.02    -0.082 Cl
HETATM    9  C4    D T 502      34.856  29.471-222.839  0.75 15.27     0.028 A 
ENDBRANCH   1   2
BRANCH   1  10
HETATM   10  C8    D T 502      31.570  28.858-222.802  0.75 15.53     0.111 A 
HETATM   11  C9    D T 502      30.717  29.639-221.995  0.75 16.45     0.081 A 
HETATM   12  C10   D T 502      29.723  29.039-221.193  0.75 14.07     0.025 A 
HETATM   13 CL16   D T 502      30.865  31.383-221.964  0.75  3.69    -0.080 Cl
HETATM   14  C11   D T 502      29.586  27.618-221.206  0.75 16.23     0.059 A 
HETATM   15  C12   D T 502      30.428  26.800-222.008  0.75 16.59     0.013 A 
HETATM   16 CL15   D T 502      28.379  26.876-220.233  0.75  7.17    -0.082 Cl
HETATM   17  C13   D T 502      31.423  27.418-222.809  0.75 15.83     0.026 A 
ENDBRANCH   1  10
TORSDOF 2
