REMARK  19 active torsions:
REMARK  status: ('A' for Active; 'I' for Inactive)
REMARK    1  A    between atoms: C2_2  and  C6_6 
REMARK    2  A    between atoms: C6_6  and  O7_7 
REMARK    3  A    between atoms: O7_7  and  C10_8 
REMARK       I    between atoms: C10_8  and  N11_10 
REMARK    4  A    between atoms: N11_10  and  C12_11 
REMARK    5  A    between atoms: C12_11  and  C13_12 
REMARK    6  A    between atoms: C12_11  and  C26_15 
REMARK    7  A    between atoms: C13_12  and  C14_13 
REMARK    8  A    between atoms: C14_13  and  C15_14 
REMARK    9  A    between atoms: C15_14  and  C44_23 
REMARK   10  A    between atoms: C15_14  and  N58_30 
REMARK   11  A    between atoms: C26_15  and  C28_16 
REMARK   12  A    between atoms: C44_23  and  C45_24 
REMARK       I    between atoms: N58_30  and  C18_33 
REMARK   13  A    between atoms: N20_31  and  C19_32 
REMARK       I    between atoms: N20_31  and  C21_38 
REMARK   14  A    between atoms: C19_32  and  C18_33 
REMARK   15  A    between atoms: C19_32  and  C62_35 
REMARK       I    between atoms: C21_38  and  N74_39 
REMARK   16  A    between atoms: N74_39  and  C75_40 
REMARK   17  A    between atoms: C75_40  and  C77_42 
REMARK   18  A    between atoms: C82_45  and  C85@A_47 
REMARK   19  A    between atoms: C82_45  and  C85@B_48 
ROOT
HETATM    1  C15   D T1001       3.207  -4.573   5.437  1.00  8.25     0.113 C 
ENDROOT
BRANCH   1   2
HETATM    2  C14   D T1001       1.862  -3.906   5.074  1.00  7.75     0.060 C 
BRANCH   2   3
HETATM    3  C13   D T1001       1.391  -4.186   3.646  1.00  7.71     0.177 C 
HETATM    4  O41   D T1001       0.157  -3.516   3.370  1.00  8.53    -0.221 OA
BRANCH   3   5
HETATM    5  C12   D T1001       1.265  -5.690   3.309  1.00  8.17     0.143 C 
BRANCH   5   6
HETATM    6  N11   D T1001       0.118  -6.286   4.070  1.00  8.56    -0.211 NA
HETATM    7  C10   D T1001       0.301  -7.519   4.634  1.00  9.54     0.384 C 
HETATM    8  O24   D T1001       1.329  -8.160   4.757  1.00 10.40    -0.236 OA
BRANCH   7   9
HETATM    9  O7    D T1001      -0.898  -7.993   5.068  1.00 13.31    -0.278 OA
BRANCH   9  10
HETATM   10  C6    D T1001      -0.851  -9.422   5.316  1.00 21.32     0.188 C 
BRANCH  10  11
HETATM   11  C2    D T1001      -2.012  -9.899   6.082  1.00 19.63     0.058 A 
HETATM   12  C1    D T1001      -2.067 -10.945   6.997  1.00 18.64     0.104 A 
HETATM   13  N5    D T1001      -3.312 -11.174   7.576  1.00 24.03    -0.235 NA
HETATM   14  C4    D T1001      -4.207 -10.316   7.109  1.00 26.08     0.134 A 
HETATM   15  S3    D T1001      -3.563  -9.213   5.968  1.00 24.78    -0.066 SA
ENDBRANCH  10  11
ENDBRANCH   9  10
ENDBRANCH   7   9
ENDBRANCH   5   6
BRANCH   5  16
HETATM   16  C26   D T1001       1.056  -5.935   1.784  1.00  9.89     0.053 C 
BRANCH  16  17
HETATM   17  C28   D T1001       1.090  -7.395   1.404  1.00 10.53    -0.020 A 
HETATM   18  C31   D T1001       2.333  -8.029   1.230  1.00 10.31    -0.004 A 
HETATM   19  C32   D T1001       2.371  -9.401   0.885  1.00 11.41    -0.000 A 
HETATM   20  C33   D T1001       1.181 -10.119   0.721  1.00 13.64    -0.000 A 
HETATM   21  C34   D T1001      -0.045  -9.487   0.904  1.00 13.54    -0.000 A 
HETATM   22  C35   D T1001      -0.099  -8.119   1.235  1.00 13.00    -0.004 A 
ENDBRANCH  16  17
ENDBRANCH   5  16
ENDBRANCH   3   5
ENDBRANCH   2   3
ENDBRANCH   1   2
BRANCH   1  23
HETATM   23  C44   D T1001       3.635  -4.314   6.898  1.00  9.33     0.051 C 
BRANCH  23  24
HETATM   24  C45   D T1001       4.096  -2.915   7.264  1.00  9.99    -0.020 A 
HETATM   25  C48   D T1001       5.379  -2.454   6.998  1.00 10.42    -0.004 A 
HETATM   26  C49   D T1001       5.789  -1.171   7.364  1.00 12.60    -0.000 A 
HETATM   27  C50   D T1001       4.875  -0.338   8.031  1.00 12.24    -0.000 A 
HETATM   28  C51   D T1001       3.594  -0.764   8.302  1.00 13.41    -0.000 A 
HETATM   29  C52   D T1001       3.209  -2.048   7.917  1.00 11.46    -0.004 A 
ENDBRANCH  23  24
ENDBRANCH   1  23
BRANCH   1  30
HETATM   30  N58   D T1001       4.188  -4.071   4.460  1.00  8.28    -0.238 NA
HETATM   31  C18   D T1001       5.228  -4.894   4.105  1.00  8.88     0.274 C 
HETATM   32  O61   D T1001       5.364  -6.008   4.590  1.00 11.15    -0.268 OA
BRANCH  31  33
HETATM   33  C19   D T1001       6.202  -4.241   3.096  1.00  8.22     0.188 C 
BRANCH  33  34
HETATM   34  N20   D T1001       7.274  -3.641   3.928  1.00  9.06    -0.211 NA
HETATM   35  C21   D T1001       7.700  -2.363   3.606  1.00  7.77     0.343 C 
HETATM   36  N74   D T1001       8.743  -1.874   4.395  1.00  9.58    -0.294 N 
HETATM   37  O76   D T1001       7.257  -1.763   2.630  1.00  8.28    -0.245 OA
HETATM   38  C95   D T1001       9.377  -2.630   5.470  1.00 12.13     0.131 C 
BRANCH  36  39
HETATM   39  C75   D T1001       9.312  -0.576   4.044  1.00 11.33     0.152 C 
BRANCH  39  40
HETATM   40  C77   D T1001       9.330   0.388   5.186  1.00 11.34     0.083 A 
HETATM   41  C80   D T1001       8.234   1.103   5.607  1.00 12.89     0.049 A 
HETATM   42  S81   D T1001       8.670   2.075   6.942  1.00 18.25    -0.091 SA
HETATM   43  C82   D T1001      10.274   1.483   6.871  1.00 17.46     0.127 A 
HETATM   44  N83   D T1001      10.480   0.637   5.912  1.00 15.61    -0.266 NA
BRANCH  43  45
HETATM   45  C85A  D T1001      11.259   1.998   7.897  0.65 20.47     0.030 C 
HETATM   46  C86A  D T1001      12.100   3.132   7.347  0.65 21.84     0.003 C 
HETATM   47  C90A  D T1001      10.549   2.367   9.205  0.65 25.77     0.003 C 
ENDBRANCH  43  45
BRANCH  43  48
HETATM   48  C85B  D T1001      11.301   1.960   7.865  0.35 20.27     0.030 C 
HETATM   49  C86B  D T1001      12.440   0.968   8.058  0.35 19.26     0.003 C 
HETATM   50  C90B  D T1001      11.747   3.396   7.698  0.35 21.00     0.003 C 
ENDBRANCH  43  48
ENDBRANCH  39  40
ENDBRANCH  36  39
ENDBRANCH  33  34
BRANCH  33  51
HETATM   51  C62   D T1001       6.742  -5.367   2.177  1.00  9.40     0.032 C 
HETATM   52  C64   D T1001       5.599  -5.962   1.362  1.00 11.21     0.003 C 
HETATM   53  C68   D T1001       7.811  -4.770   1.238  1.00 11.67     0.003 C 
ENDBRANCH  33  51
ENDBRANCH  31  33
ENDBRANCH   1  30
TORSDOF 19
