REMARK  3 active torsions:
REMARK  status: ('A' for Active; 'I' for Inactive)
REMARK    1  A    between atoms: CAV_22  and  CAW_23 
REMARK    2  A    between atoms: CAX_24  and  NBD_30 
REMARK    3  A    between atoms: CAY_25  and  CAZ_26 
ROOT
HETATM    1  CAK   D T   3      -5.112  -2.080 -12.140  1.00 20.96     0.102 A 
HETATM    2  CAL   D T   3      -2.100  -5.264 -11.649  1.00 13.59     0.124 A 
HETATM    3  CAM   D T   3      -5.330  -4.424 -12.602  1.00 18.11     0.104 A 
HETATM    4  NAS   D T   3      -3.805  -2.229 -11.759  1.00 13.25    -0.225 NA
HETATM    5  NAT   D T   3      -3.322  -5.607 -12.125  1.00 15.72    -0.162 NA
HETATM    6  CAW   D T   3      -5.877  -3.153 -12.611  1.00 22.75     0.038 A 
HETATM    7  CAZ   D T   3      -2.024  -3.970 -11.397  1.00 12.88     0.057 A 
HETATM    8  CBC   D T   3      -3.266  -3.472 -11.748  1.00 11.55     0.165 A 
HETATM    9  NBE   D T   3      -4.031  -4.591 -12.189  1.00 16.74    -0.211 N 
ENDROOT
BRANCH   6  10
HETATM   10  CAV   D T   3      -7.230  -3.021 -12.983  1.00 21.40     0.003 A 
HETATM   11  CAE   D T   3      -7.965  -1.948 -12.507  1.00 24.66     0.002 A 
HETATM   12  CAG   D T   3      -9.311  -1.782 -12.829  1.00 27.57     0.017 A 
HETATM   13  CAX   D T   3      -9.962  -2.739 -13.584  1.00 20.12     0.056 A 
HETATM   14  CAH   D T   3      -9.255  -3.838 -14.027  1.00 21.49     0.017 A 
HETATM   15  CAF   D T   3      -7.886  -3.999 -13.746  1.00 24.93     0.002 A 
BRANCH  13  16
HETATM   16  NBD   D T   3     -11.362  -2.548 -13.819  1.00 29.07    -0.344 N 
HETATM   17  CAP   D T   3     -12.238  -3.697 -14.067  1.00 43.49     0.140 C 
HETATM   18  CAN   D T   3     -13.462  -3.494 -13.185  1.00 58.34     0.314 C 
HETATM   19  NAU   D T   3     -14.282  -2.368 -13.687  1.00 37.54     0.343 N 
HETATM   20  CAO   D T   3     -13.479  -1.156 -13.981  1.00 35.80     0.314 C 
HETATM   21  CAQ   D T   3     -12.004  -1.264 -13.504  1.00 24.02     0.140 C 
ENDBRANCH  13  16
ENDBRANCH   6  10
BRANCH   7  22
HETATM   22  CAY   D T   3      -0.869  -3.240 -10.889  1.00 18.73     0.007 A 
HETATM   23  CAD   D T   3       0.371  -3.507 -11.442  1.00 18.59     0.021 A 
HETATM   24  CAC   D T   3       1.533  -2.835 -11.012  1.00 18.90     0.099 A 
HETATM   25  NAR   D T   3       1.481  -1.973  -9.992  1.00 18.61    -0.244 NA
HETATM   26  CBA   D T   3       0.316  -1.689  -9.392  1.00 14.95     0.081 A 
HETATM   27  CAI   D T   3       0.284  -0.787  -8.332  1.00 16.02     0.019 A 
HETATM   28  CBB   D T   3      -0.881  -2.326  -9.794  1.00 17.98     0.018 A 
HETATM   29  CAA   D T   3      -0.887  -0.498  -7.655  1.00 23.51     0.002 A 
HETATM   30  CAB   D T   3      -2.075  -1.108  -8.043  1.00 19.31     0.000 A 
HETATM   31  CAJ   D T   3      -2.047  -1.998  -9.117  1.00 21.46     0.002 A 
ENDBRANCH   7  22
TORSDOF 3
