REMARK  3 active torsions:
REMARK  status: ('A' for Active; 'I' for Inactive)
REMARK    1  A    between atoms: CAV_22  and  CAW_23 
REMARK    2  A    between atoms: CAX_24  and  NBD_30 
REMARK    3  A    between atoms: CAY_25  and  CAZ_26 
ROOT
HETATM    1  CAK   D T   3       6.815  11.562   2.385  1.00 20.96     0.102 A 
HETATM    2  CAL   D T   3       2.932   9.640   3.205  1.00 13.59     0.124 A 
HETATM    3  CAM   D T   3       6.346   9.704   3.828  1.00 18.11     0.104 A 
HETATM    4  NAS   D T   3       5.494  11.700   2.054  1.00 13.25    -0.225 NA
HETATM    5  NAT   D T   3       4.031   9.154   3.831  1.00 15.72    -0.162 NA
HETATM    6  CAW   D T   3       7.257  10.605   3.305  1.00 22.75     0.038 A 
HETATM    7  CAZ   D T   3       3.233  10.653   2.413  1.00 12.88     0.057 A 
HETATM    8  CBC   D T   3       4.598  10.819   2.562  1.00 11.55     0.165 A 
HETATM    9  NBE   D T   3       5.022   9.810   3.477  1.00 16.74    -0.211 N 
ENDROOT
BRANCH   6  10
HETATM   10  CAV   D T   3       8.616  10.434   3.638  1.00 21.40     0.003 A 
HETATM   11  CAE   D T   3       9.591  10.902   2.773  1.00 24.66     0.002 A 
HETATM   12  CAG   D T   3      10.949  10.742   3.044  1.00 27.57     0.017 A 
HETATM   13  CAX   D T   3      11.349  10.039   4.166  1.00 20.12     0.056 A 
HETATM   14  CAH   D T   3      10.389   9.527   5.013  1.00 21.49     0.017 A 
HETATM   15  CAF   D T   3       9.015   9.717   4.776  1.00 24.93     0.002 A 
BRANCH  13  16
HETATM   16  NBD   D T   3      12.756   9.846   4.350  1.00 29.07    -0.344 N 
HETATM   17  CAP   D T   3      13.255   8.694   5.108  1.00 43.49     0.140 C 
HETATM   18  CAN   D T   3      14.380   8.096   4.276  1.00 58.34     0.314 C 
HETATM   19  NAU   D T   3      15.557   8.993   4.271  1.00 37.54     0.343 N 
HETATM   20  CAO   D T   3      15.204  10.404   3.977  1.00 35.80     0.314 C 
HETATM   21  CAQ   D T   3      13.727  10.590   3.535  1.00 24.02     0.140 C 
ENDBRANCH  13  16
ENDBRANCH   6  10
BRANCH   7  22
HETATM   22  CAY   D T   3       2.313  11.430   1.592  1.00 18.73     0.007 A 
HETATM   23  CAD   D T   3       1.118  11.841   2.156  1.00 18.59     0.021 A 
HETATM   24  CAC   D T   3       0.182  12.605   1.431  1.00 18.90     0.099 A 
HETATM   25  NAR   D T   3       0.388  12.886   0.141  1.00 18.61    -0.244 NA
HETATM   26  CBA   D T   3       1.513  12.494  -0.476  1.00 14.95     0.081 A 
HETATM   27  CAI   D T   3       1.709  12.798  -1.821  1.00 16.02     0.019 A 
HETATM   28  CBB   D T   3       2.490  11.737   0.211  1.00 17.98     0.018 A 
HETATM   29  CAA   D T   3       2.832  12.376  -2.508  1.00 23.51     0.002 A 
HETATM   30  CAB   D T   3       3.807  11.638  -1.846  1.00 19.31     0.000 A 
HETATM   31  CAJ   D T   3       3.621  11.349  -0.494  1.00 21.46     0.002 A 
ENDBRANCH   7  22
TORSDOF 3
