REMARK  2 active torsions:
REMARK  status: ('A' for Active; 'I' for Inactive)
REMARK    1  A    between atoms: C4_4  and  C7_7 
REMARK    2  A    between atoms: C5_5  and  C15_15 
ROOT
HETATM    1  N1    D T 609     -20.209  -5.691  10.630  1.00 18.00    -0.194 NA
HETATM    2  C2    D T 609     -18.931  -6.100  10.212  1.00 17.14     0.239 A 
HETATM    3  C3    D T 609     -21.074  -6.610  11.151  1.00 20.02     0.187 A 
HETATM    4  C4    D T 609     -20.742  -8.041  11.271  1.00 21.22     0.051 A 
HETATM    5  C5    D T 609     -19.362  -8.393  10.823  1.00 23.03     0.065 A 
HETATM    6  N6    D T 609     -18.499  -7.434  10.277  1.00 19.22    -0.219 NA
HETATM    7  N13   D T 609     -22.317  -6.255  11.542  1.00 13.94    -0.127 N 
HETATM    8  N14   D T 609     -18.067  -5.122   9.680  1.00 16.83    -0.060 NA
ENDROOT
BRANCH   4   9
HETATM    9  C7    D T 609     -21.638  -9.047  11.820  1.00 23.59     0.004 A 
HETATM   10  C8    D T 609     -22.215 -10.057  10.969  1.00 24.10     0.001 A 
HETATM   11  C9    D T 609     -23.077 -11.046  11.471  1.00 24.84     0.011 A 
HETATM   12  C10   D T 609     -23.403 -11.056  12.840  1.00 26.64     0.058 A 
HETATM   13  C11   D T 609     -22.885 -10.078  13.753  1.00 26.94     0.011 A 
HETATM   14 CL1    D T 609     -24.419 -12.289  13.310  1.00 30.15    -0.082 Cl
HETATM   15  C12   D T 609     -22.003  -9.084  13.218  1.00 26.89     0.001 A 
ENDBRANCH   4   9
BRANCH   5  16
HETATM   16  C15   D T 609     -18.856  -9.864  10.920  1.00 22.10     0.046 C 
HETATM   17  C16   D T 609     -17.482 -10.232  10.447  1.00 27.93     0.007 C 
ENDBRANCH   5  16
TORSDOF 2
