REMARK  2 active torsions:
REMARK  status: ('A' for Active; 'I' for Inactive)
REMARK    1  A    between atoms: C4_4  and  C7_7 
REMARK    2  A    between atoms: C5_5  and  C15_15 
ROOT
HETATM    1  N1    D T 609     -16.476   0.578  13.753  1.00 18.00    -0.194 NA
HETATM    2  C2    D T 609     -16.044  -0.238  12.693  1.00 17.14     0.239 A 
HETATM    3  C3    D T 609     -17.803   0.626  14.070  1.00 20.02     0.187 A 
HETATM    4  C4    D T 609     -18.830  -0.124  13.324  1.00 21.22     0.051 A 
HETATM    5  C5    D T 609     -18.291  -0.979  12.225  1.00 23.03     0.065 A 
HETATM    6  N6    D T 609     -16.926  -0.999  11.910  1.00 19.22    -0.219 NA
HETATM    7  N13   D T 609     -18.255   1.415  15.068  1.00 13.94    -0.127 N 
HETATM    8  N14   D T 609     -14.667  -0.260  12.398  1.00 16.83    -0.060 NA
ENDROOT
BRANCH   4   9
HETATM    9  C7    D T 609     -20.251  -0.096  13.632  1.00 23.59     0.004 A 
HETATM   10  C8    D T 609     -21.184   0.537  12.735  1.00 24.10     0.001 A 
HETATM   11  C9    D T 609     -22.562   0.573  13.001  1.00 24.84     0.011 A 
HETATM   12  C10   D T 609     -23.060  -0.014  14.180  1.00 26.64     0.058 A 
HETATM   13  C11   D T 609     -22.199  -0.652  15.134  1.00 26.94     0.011 A 
HETATM   14 CL1    D T 609     -24.712   0.081  14.368  1.00 30.15    -0.082 Cl
HETATM   15  C12   D T 609     -20.797  -0.681  14.836  1.00 26.89     0.001 A 
ENDBRANCH   4   9
BRANCH   5  16
HETATM   16  C15   D T 609     -19.254  -1.856  11.368  1.00 22.10     0.046 C 
HETATM   17  C16   D T 609     -18.725  -2.697  10.244  1.00 27.93     0.007 C 
ENDBRANCH   5  16
TORSDOF 2
