REMARK  3 active torsions:
REMARK  status: ('A' for Active; 'I' for Inactive)
REMARK    1  A    between atoms: C4_6  and  C5_7 
REMARK    2  A    between atoms: C5_7  and  C6_8 
REMARK    3  A    between atoms: C5_7  and  C12_16 
ROOT
HETATM    1  C12   D T 526       2.479  12.967  -6.158  0.85 36.74     0.021 A 
HETATM    2  C13   D T 526       1.172  12.470  -6.199  0.85 36.68    -0.000 A 
HETATM    3  C14   D T 526       0.105  13.181  -5.626  0.85 39.54     0.016 A 
HETATM    4  C15   D T 526       2.721  14.202  -5.521  0.85 39.08    -0.000 A 
HETATM    5  C16   D T 526       1.677  14.921  -4.941  0.85 40.00     0.017 A 
HETATM    6  C17   D T 526       0.373  14.418  -4.992  0.85 40.79     0.062 A 
HETATM    7  N4    D T 526      -0.675  15.171  -4.401  0.85 42.34    -0.294 N 
HETATM    8  C18   D T 526      -0.411  16.484  -3.734  0.85 43.53     0.134 C 
HETATM    9  C19   D T 526      -1.974  14.687  -4.438  0.85 41.43     0.261 A 
HETATM   10  O1    D T 526      -2.884  15.341  -3.924  0.85 42.98    -0.267 OA
HETATM   11  C20   D T 526      -2.233  13.473  -5.061  0.85 40.93     0.061 A 
HETATM   12  C21   D T 526      -1.227  12.697  -5.663  0.85 40.09     0.006 A 
HETATM   13  C22   D T 526      -1.656  11.487  -6.269  0.85 38.51     0.001 A 
HETATM   14  C23   D T 526      -1.160  10.240  -5.912  0.85 37.22     0.011 A 
HETATM   15  C24   D T 526      -1.650   9.097  -6.539  0.85 38.32     0.058 A 
HETATM   16 CL2    D T 526      -1.032   7.577  -6.043  0.85 39.14    -0.082 Cl
HETATM   17  C25   D T 526      -2.634   9.147  -7.540  0.85 38.76     0.011 A 
HETATM   18  C26   D T 526      -3.142  10.391  -7.921  0.85 39.13     0.001 A 
HETATM   19  C27   D T 526      -2.637  11.537  -7.280  0.85 40.58     0.000 A 
ENDROOT
BRANCH   1  20
HETATM   20  C5    D T 526       3.678  12.166  -6.746  0.85 35.96     0.342 C 
HETATM   21  N3    D T 526       4.499  13.024  -7.644  0.85 33.38     0.629 N 
BRANCH  20  22
HETATM   22  C4    D T 526       4.585  11.862  -5.522  0.85 36.74     0.100 A 
HETATM   23  N1    D T 526       5.760  11.251  -5.521  0.85 38.12    -0.308 N 
HETATM   24  C1    D T 526       6.501  10.694  -6.708  0.85 35.33     0.132 C 
HETATM   25  C2    D T 526       6.198  11.191  -4.265  0.85 38.34     0.178 A 
HETATM   26  N2    D T 526       5.294  11.786  -3.491  0.85 36.49    -0.223 NA
HETATM   27  C3    D T 526       4.299  12.188  -4.261  0.85 36.47     0.116 A 
ENDBRANCH  20  22
BRANCH  20  28
HETATM   28  C6    D T 526       3.079  10.850  -7.345  0.85 36.17     0.021 A 
HETATM   29  C7    D T 526       2.781   9.751  -6.527  0.85 36.92    -0.001 A 
HETATM   30  C8    D T 526       2.197   8.580  -7.041  0.85 39.20     0.011 A 
HETATM   31  C9    D T 526       1.882   8.496  -8.404  0.85 42.64     0.058 A 
HETATM   32 CL1    D T 526       1.156   7.053  -9.072  0.85 49.10    -0.082 Cl
HETATM   33  C10   D T 526       2.154   9.592  -9.237  0.85 40.97     0.011 A 
HETATM   34  C11   D T 526       2.734  10.759  -8.708  0.85 38.69    -0.001 A 
ENDBRANCH  20  28
ENDBRANCH   1  20
TORSDOF 3
