REMARK  3 active torsions:
REMARK  status: ('A' for Active; 'I' for Inactive)
REMARK    1  A    between atoms: C4_6  and  C5_7 
REMARK    2  A    between atoms: C5_7  and  C6_8 
REMARK    3  A    between atoms: C5_7  and  C12_16 
ROOT
HETATM    1  C12   D T 526      -0.779  12.122  -6.176  0.85 36.74     0.021 A 
HETATM    2  C13   D T 526      -1.972  11.522  -5.759  0.85 36.68    -0.000 A 
HETATM    3  C14   D T 526      -2.835  12.167  -4.857  0.85 39.54     0.016 A 
HETATM    4  C15   D T 526      -0.442  13.395  -5.670  0.85 39.08    -0.000 A 
HETATM    5  C16   D T 526      -1.280  14.050  -4.770  0.85 40.00     0.017 A 
HETATM    6  C17   D T 526      -2.473  13.443  -4.363  0.85 40.79     0.062 A 
HETATM    7  N4    D T 526      -3.315  14.132  -3.451  0.85 42.34    -0.294 N 
HETATM    8  C18   D T 526      -2.953  15.485  -2.925  0.85 43.53     0.134 C 
HETATM    9  C19   D T 526      -4.501  13.545  -3.033  0.85 41.43     0.261 A 
HETATM   10  O1    D T 526      -5.231  14.142  -2.240  0.85 42.98    -0.267 OA
HETATM   11  C20   D T 526      -4.851  12.293  -3.520  0.85 40.93     0.061 A 
HETATM   12  C21   D T 526      -4.050  11.577  -4.428  0.85 40.09     0.006 A 
HETATM   13  C22   D T 526      -4.555  10.316  -4.840  0.85 38.51     0.001 A 
HETATM   14  C23   D T 526      -3.860   9.126  -4.668  0.85 37.22     0.011 A 
HETATM   15  C24   D T 526      -4.434   7.926  -5.079  0.85 38.32     0.058 A 
HETATM   16 CL2    D T 526      -3.553   6.479  -4.818  0.85 39.14    -0.082 Cl
HETATM   17  C25   D T 526      -5.703   7.861  -5.678  0.85 38.76     0.011 A 
HETATM   18  C26   D T 526      -6.417   9.046  -5.869  0.85 39.13     0.001 A 
HETATM   19  C27   D T 526      -5.824  10.251  -5.449  0.85 40.58     0.000 A 
ENDROOT
BRANCH   1  20
HETATM   20  C5    D T 526       0.209  11.398  -7.137  0.85 35.96     0.342 C 
HETATM   21  N3    D T 526       0.593  12.285  -8.269  0.85 33.38     0.629 N 
BRANCH  20  22
HETATM   22  C4    D T 526       1.504  11.211  -6.300  0.85 36.74     0.100 A 
HETATM   23  N1    D T 526       2.656  10.697  -6.702  0.85 38.12    -0.308 N 
HETATM   24  C1    D T 526       2.989  10.157  -8.068  0.85 35.33     0.132 C 
HETATM   25  C2    D T 526       3.503  10.717  -5.674  0.85 38.34     0.178 A 
HETATM   26  N2    D T 526       2.873  11.267  -4.640  0.85 36.49    -0.223 NA
HETATM   27  C3    D T 526       1.643  11.560  -5.021  0.85 36.47     0.116 A 
ENDBRANCH  20  22
BRANCH  20  28
HETATM   28  C6    D T 526      -0.442  10.018  -7.484  0.85 36.17     0.021 A 
HETATM   29  C7    D T 526      -0.344   8.929  -6.605  0.85 36.92    -0.001 A 
HETATM   30  C8    D T 526      -0.965   7.697  -6.878  0.85 39.20     0.011 A 
HETATM   31  C9    D T 526      -1.721   7.539  -8.048  0.85 42.64     0.058 A 
HETATM   32 CL1    D T 526      -2.504   6.020  -8.413  0.85 49.10    -0.082 Cl
HETATM   33  C10   D T 526      -1.849   8.622  -8.930  0.85 40.97     0.011 A 
HETATM   34  C11   D T 526      -1.226   9.850  -8.642  0.85 38.69    -0.001 A 
ENDBRANCH  20  28
ENDBRANCH   1  20
TORSDOF 3
