REMARK  3 active torsions:
REMARK  status: ('A' for Active; 'I' for Inactive)
REMARK    1  A    between atoms: C4_6  and  C5_7 
REMARK    2  A    between atoms: C5_7  and  C6_8 
REMARK    3  A    between atoms: C5_7  and  C12_16 
ROOT
HETATM    1  C12   D T 526       8.065  -6.975   9.522  0.85 36.74     0.021 A 
HETATM    2  C13   D T 526       8.570  -5.931   8.738  0.85 36.68    -0.000 A 
HETATM    3  C14   D T 526       9.078  -4.761   9.325  0.85 39.54     0.016 A 
HETATM    4  C15   D T 526       8.065  -6.837  10.925  0.85 39.08    -0.000 A 
HETATM    5  C16   D T 526       8.559  -5.681  11.528  0.85 40.00     0.017 A 
HETATM    6  C17   D T 526       9.066  -4.645  10.736  0.85 40.79     0.062 A 
HETATM    7  N4    D T 526       9.571  -3.482  11.372  0.85 42.34    -0.294 N 
HETATM    8  C18   D T 526       9.573  -3.346  12.862  0.85 43.53     0.134 C 
HETATM    9  C19   D T 526      10.074  -2.442  10.603  0.85 41.43     0.261 A 
HETATM   10  O1    D T 526      10.511  -1.431  11.155  0.85 42.98    -0.267 OA
HETATM   11  C20   D T 526      10.084  -2.560   9.219  0.85 40.93     0.061 A 
HETATM   12  C21   D T 526       9.599  -3.696   8.548  0.85 40.09     0.006 A 
HETATM   13  C22   D T 526       9.692  -3.667   7.132  0.85 38.51     0.001 A 
HETATM   14  C23   D T 526       8.592  -3.804   6.296  0.85 37.22     0.011 A 
HETATM   15  C24   D T 526       8.763  -3.741   4.915  0.85 38.32     0.058 A 
HETATM   16 CL2    D T 526       7.373  -3.885   3.922  0.85 39.14    -0.082 Cl
HETATM   17  C25   D T 526      10.020  -3.549   4.317  0.85 38.76     0.011 A 
HETATM   18  C26   D T 526      11.141  -3.416   5.138  0.85 39.13     0.001 A 
HETATM   19  C27   D T 526      10.953  -3.483   6.531  0.85 40.58     0.000 A 
ENDROOT
BRANCH   1  20
HETATM   20  C5    D T 526       7.455  -8.257   8.882  0.85 35.96     0.342 C 
HETATM   21  N3    D T 526       8.039  -9.482   9.493  0.85 33.38     0.629 N 
BRANCH  20  22
HETATM   22  C4    D T 526       5.966  -8.244   9.324  0.85 36.74     0.100 A 
HETATM   23  N1    D T 526       5.044  -9.163   9.080  0.85 38.12    -0.308 N 
HETATM   24  C1    D T 526       5.214 -10.444   8.305  0.85 35.33     0.132 C 
HETATM   25  C2    D T 526       3.900  -8.765   9.632  0.85 38.34     0.178 A 
HETATM   26  N2    D T 526       4.125  -7.602  10.237  0.85 36.49    -0.223 NA
HETATM   27  C3    D T 526       5.390  -7.276  10.039  0.85 36.47     0.116 A 
ENDBRANCH  20  22
BRANCH  20  28
HETATM   28  C6    D T 526       7.585  -8.083   7.333  0.85 36.17     0.021 A 
HETATM   29  C7    D T 526       6.661  -7.315   6.609  0.85 36.92    -0.001 A 
HETATM   30  C8    D T 526       6.791  -7.108   5.225  0.85 39.20     0.011 A 
HETATM   31  C9    D T 526       7.876  -7.664   4.533  0.85 42.64     0.058 A 
HETATM   32 CL1    D T 526       8.064  -7.424   2.812  0.85 49.10    -0.082 Cl
HETATM   33  C10   D T 526       8.823  -8.419   5.242  0.85 40.97     0.011 A 
HETATM   34  C11   D T 526       8.683  -8.614   6.627  0.85 38.69    -0.001 A 
ENDBRANCH  20  28
ENDBRANCH   1  20
TORSDOF 3
