REMARK  3 active torsions:
REMARK  status: ('A' for Active; 'I' for Inactive)
REMARK    1  A    between atoms: C4_6  and  C5_7 
REMARK    2  A    between atoms: C5_7  and  C6_8 
REMARK    3  A    between atoms: C5_7  and  C12_16 
ROOT
HETATM    1  C12   D T 526       8.143  -8.214   6.932  0.85 36.74     0.021 A 
HETATM    2  C13   D T 526       8.795  -7.208   6.210  0.85 36.68    -0.000 A 
HETATM    3  C14   D T 526       9.478  -6.169   6.864  0.85 39.54     0.016 A 
HETATM    4  C15   D T 526       8.171  -8.171   8.341  0.85 39.08    -0.000 A 
HETATM    5  C16   D T 526       8.836  -7.146   9.010  0.85 40.00     0.017 A 
HETATM    6  C17   D T 526       9.491  -6.148   8.280  0.85 40.79     0.062 A 
HETATM    7  N4    D T 526      10.169  -5.118   8.982  0.85 42.34    -0.294 N 
HETATM    8  C18   D T 526      10.199  -5.084  10.478  0.85 43.53     0.134 C 
HETATM    9  C19   D T 526      10.820  -4.117   8.276  0.85 41.43     0.261 A 
HETATM   10  O1    D T 526      11.407  -3.222   8.886  0.85 42.98    -0.267 OA
HETATM   11  C20   D T 526      10.804  -4.143   6.887  0.85 40.93     0.061 A 
HETATM   12  C21   D T 526      10.150  -5.145   6.151  0.85 40.09     0.006 A 
HETATM   13  C22   D T 526      10.238  -5.036   4.738  0.85 38.51     0.001 A 
HETATM   14  C23   D T 526       9.126  -4.950   3.911  0.85 37.22     0.011 A 
HETATM   15  C24   D T 526       9.297  -4.821   2.535  0.85 38.32     0.058 A 
HETATM   16 CL2    D T 526       7.896  -4.688   1.556  0.85 39.14    -0.082 Cl
HETATM   17  C25   D T 526      10.565  -4.782   1.932  0.85 38.76     0.011 A 
HETATM   18  C26   D T 526      11.698  -4.873   2.743  0.85 39.13     0.001 A 
HETATM   19  C27   D T 526      11.509  -5.004   4.131  0.85 40.58     0.000 A 
ENDROOT
BRANCH   1  20
HETATM   20  C5    D T 526       7.342  -9.344   6.219  0.85 35.96     0.342 C 
HETATM   21  N3    D T 526       7.737 -10.681   6.740  0.85 33.38     0.629 N 
BRANCH  20  22
HETATM   22  C4    D T 526       5.874  -9.137   6.684  0.85 36.74     0.100 A 
HETATM   23  N1    D T 526       4.823  -9.888   6.394  0.85 38.12    -0.308 N 
HETATM   24  C1    D T 526       4.793 -11.125   5.535  0.85 35.33     0.132 C 
HETATM   25  C2    D T 526       3.756  -9.360   6.989  0.85 38.34     0.178 A 
HETATM   26  N2    D T 526       4.157  -8.287   7.665  0.85 36.49    -0.223 NA
HETATM   27  C3    D T 526       5.455  -8.143   7.469  0.85 36.47     0.116 A 
ENDBRANCH  20  22
BRANCH  20  28
HETATM   28  C6    D T 526       7.489  -9.089   4.683  0.85 36.17     0.021 A 
HETATM   29  C7    D T 526       6.688  -8.144   4.025  0.85 36.92    -0.001 A 
HETATM   30  C8    D T 526       6.841  -7.866   2.655  0.85 39.20     0.011 A 
HETATM   31  C9    D T 526       7.826  -8.532   1.913  0.85 42.64     0.058 A 
HETATM   32 CL1    D T 526       8.039  -8.209   0.208  0.85 49.10    -0.082 Cl
HETATM   33  C10   D T 526       8.651  -9.467   2.555  0.85 40.97     0.011 A 
HETATM   34  C11   D T 526       8.490  -9.730   3.928  0.85 38.69    -0.001 A 
ENDBRANCH  20  28
ENDBRANCH   1  20
TORSDOF 3
