REMARK  9 active torsions:
REMARK  status: ('A' for Active; 'I' for Inactive)
REMARK    1  A    between atoms: O02_2  and  CAX_24 
REMARK    2  A    between atoms: CAC_3  and  CAM_13 
REMARK    3  A    between atoms: CAC_3  and  NBH_34 
REMARK    4  A    between atoms: CAM_13  and  CAN_14 
REMARK    5  A    between atoms: CAN_14  and  OAW_23 
REMARK    6  A    between atoms: NAU_21  and  CBB_28 
REMARK    7  A    between atoms: NAU_21  and  CBE_31 
REMARK    8  A    between atoms: OAV_22  and  CBC_29 
REMARK    9  A    between atoms: OAW_23  and  CBD_30 
ROOT
HETATM    1  NAD   D T 445     -42.047  -5.607  36.958  1.00172.85    -0.191 NA
HETATM    2  CAG   D T 445     -42.604  -6.497  36.871  1.00172.72     0.104 C 
HETATM    3  CAH   D T 445     -44.127  -8.374  37.773  1.00173.65     0.111 A 
HETATM    4  CAK   D T 445     -45.807 -11.463  36.511  1.00175.08     0.045 A 
HETATM    5  CAL   D T 445     -44.496 -10.559  34.191  1.00173.14     0.029 A 
HETATM    6  NAT   D T 445     -44.880  -9.543  37.696  1.00174.21    -0.243 NA
HETATM    7  CBA   D T 445     -43.429  -7.816  36.707  1.00172.91     0.105 A 
HETATM    8  CBC   D T 445     -45.261 -11.728  34.142  1.00173.92     0.116 A 
HETATM    9  CBD   D T 445     -45.931 -12.208  35.309  1.00174.94     0.118 A 
HETATM   10  CBE   D T 445     -43.526  -8.492  35.476  1.00172.61     0.094 A 
HETATM   11  CBF   D T 445     -44.996 -10.246  36.521  1.00174.22     0.085 A 
HETATM   12  CBG   D T 445     -44.321  -9.750  35.390  1.00173.34     0.038 A 
ENDROOT
BRANCH  10  13
HETATM   13  NAU   D T 445     -42.770  -7.967  34.276  1.00171.92    -0.244 NA
BRANCH  13  14
HETATM   14  CBB   D T 445     -42.485  -6.615  33.765  1.00169.02     0.094 A 
HETATM   15  CAJ   D T 445     -41.747  -5.636  34.388  1.00169.48     0.045 A 
HETATM   16  CAX   D T 445     -41.464  -4.312  33.787  1.00166.40     0.106 A 
HETATM   17  CAY   D T 445     -41.939  -4.044  32.511  1.00162.90     0.081 A 
HETATM   18 CL1    D T 445     -41.641  -2.543  31.704  1.00167.07    -0.080 Cl
HETATM   19  CAI   D T 445     -42.671  -5.043  31.854  1.00162.68     0.026 A 
HETATM   20  CAZ   D T 445     -42.941  -6.298  32.436  1.00165.75     0.076 A 
HETATM   21 CL2    D T 445     -43.853  -7.409  31.507  1.00297.59    -0.081 Cl
BRANCH  16  22
HETATM   22  O02   D T 445     -40.734  -3.348  34.465  1.00167.55    -0.327 OA
HETATM   23  C01   D T 445     -39.402  -2.896  34.093  1.00  7.55     0.181 C 
ENDBRANCH  16  22
ENDBRANCH  13  14
ENDBRANCH  10  13
BRANCH   8  24
HETATM   24  OAV   D T 445     -45.339 -12.339  32.862  1.00174.06    -0.326 OA
HETATM   25  CAA   D T 445     -46.289 -11.898  31.963  1.00171.51     0.181 C 
ENDBRANCH   8  24
BRANCH   9  26
HETATM   26  OAW   D T 445     -46.851 -13.380  35.223  1.00176.22    -0.329 OA
BRANCH  26  27
HETATM   27  CAN   D T 445     -46.304 -14.645  35.298  1.00172.41     0.151 C 
BRANCH  27  28
HETATM   28  CAM   D T 445     -46.397 -15.254  33.900  1.00172.95     0.068 C 
BRANCH  28  29
HETATM   29  CAC   D T 445     -45.937 -16.714  33.929  1.00176.18     0.253 C 
BRANCH  29  30
HETATM   30  NBH   D T 445     -47.118 -17.546  33.669  1.00176.27     0.141 N 
HETATM   31  CAP   D T 445     -46.901 -18.956  34.004  1.00179.63     0.285 C 
HETATM   32  CAR   D T 445     -48.099 -19.829  33.683  1.00181.97     0.285 C 
HETATM   33  NBI   D T 445     -48.547 -19.657  32.324  1.00180.77     0.143 N 
HETATM   34  CAO   D T 445     -49.741 -20.462  32.055  1.00184.53     0.285 C 
HETATM   35  CAS   D T 445     -48.755 -18.262  32.064  1.00176.33     0.285 C 
HETATM   36  CAQ   D T 445     -47.540 -17.398  32.313  1.00174.56     0.285 C 
ENDBRANCH  29  30
ENDBRANCH  28  29
ENDBRANCH  27  28
ENDBRANCH  26  27
ENDBRANCH   9  26
TORSDOF 9
