REMARK  9 active torsions:
REMARK  status: ('A' for Active; 'I' for Inactive)
REMARK    1  A    between atoms: O02_2  and  CAX_24 
REMARK    2  A    between atoms: CAC_3  and  CAM_13 
REMARK    3  A    between atoms: CAC_3  and  NBH_34 
REMARK    4  A    between atoms: CAM_13  and  CAN_14 
REMARK    5  A    between atoms: CAN_14  and  OAW_23 
REMARK    6  A    between atoms: NAU_21  and  CBB_28 
REMARK    7  A    between atoms: NAU_21  and  CBE_31 
REMARK    8  A    between atoms: OAV_22  and  CBC_29 
REMARK    9  A    between atoms: OAW_23  and  CBD_30 
ROOT
HETATM    1  NAD   D T 445       1.694  -4.480 -11.734  1.00172.85    -0.191 NA
HETATM    2  CAG   D T 445       0.896  -5.089 -12.054  1.00172.72     0.104 C 
HETATM    3  CAH   D T 445      -0.234  -7.353 -12.557  1.00173.65     0.111 A 
HETATM    4  CAK   D T 445      -3.524  -8.627 -13.784  1.00175.08     0.045 A 
HETATM    5  CAL   D T 445      -3.958  -5.847 -13.822  1.00173.14     0.029 A 
HETATM    6  NAT   D T 445      -1.268  -8.191 -12.965  1.00174.21    -0.243 NA
HETATM    7  CBA   D T 445      -0.311  -5.965 -12.527  1.00172.91     0.105 A 
HETATM    8  CBC   D T 445      -4.980  -6.712 -14.224  1.00173.92     0.116 A 
HETATM    9  CBD   D T 445      -4.780  -8.127 -14.218  1.00174.94     0.118 A 
HETATM   10  CBE   D T 445      -1.538  -5.400 -12.923  1.00172.61     0.094 A 
HETATM   11  CBF   D T 445      -2.481  -7.689 -13.373  1.00174.22     0.085 A 
HETATM   12  CBG   D T 445      -2.646  -6.291 -13.372  1.00173.34     0.038 A 
ENDROOT
BRANCH  10  13
HETATM   13  NAU   D T 445      -1.692  -3.896 -12.949  1.00171.92    -0.244 NA
BRANCH  13  14
HETATM   14  CBB   D T 445      -1.221  -2.810 -12.072  1.00169.02     0.094 A 
HETATM   15  CAJ   D T 445       0.085  -2.456 -11.826  1.00169.48     0.045 A 
HETATM   16  CAX   D T 445       0.480  -1.317 -10.965  1.00166.40     0.106 A 
HETATM   17  CAY   D T 445      -0.515  -0.536 -10.394  1.00162.90     0.081 A 
HETATM   18 CL1    D T 445      -0.166   0.834  -9.398  1.00167.07    -0.080 Cl
HETATM   19  CAI   D T 445      -1.851  -0.870 -10.658  1.00162.68     0.026 A 
HETATM   20  CAZ   D T 445      -2.218  -1.960 -11.474  1.00165.75     0.076 A 
HETATM   21 CL2    D T 445      -3.892  -2.240 -11.695  1.00297.59    -0.081 Cl
BRANCH  16  22
HETATM   22  O02   D T 445       1.812  -1.014 -10.728  1.00167.55    -0.327 OA
HETATM   23  C01   D T 445       2.497   0.172 -11.218  1.00  7.55     0.181 C 
ENDBRANCH  16  22
ENDBRANCH  13  14
ENDBRANCH  10  13
BRANCH   8  24
HETATM   24  OAV   D T 445      -6.198  -6.074 -14.581  1.00174.06    -0.326 OA
HETATM   25  CAA   D T 445      -7.106  -5.757 -13.591  1.00171.51     0.181 C 
ENDBRANCH   8  24
BRANCH   9  26
HETATM   26  OAW   D T 445      -5.912  -9.051 -14.521  1.00176.22    -0.329 OA
BRANCH  26  27
HETATM   27  CAN   D T 445      -6.191  -9.328 -15.844  1.00172.41     0.151 C 
BRANCH  27  28
HETATM   28  CAM   D T 445      -7.497  -8.612 -16.184  1.00172.95     0.068 C 
BRANCH  28  29
HETATM   29  CAC   D T 445      -7.950  -8.984 -17.598  1.00176.18     0.253 C 
BRANCH  29  30
HETATM   30  NBH   D T 445      -9.173  -9.784 -17.465  1.00176.27     0.141 N 
HETATM   31  CAP   D T 445      -9.524 -10.491 -18.700  1.00179.63     0.285 C 
HETATM   32  CAR   D T 445     -10.818 -11.272 -18.584  1.00181.97     0.285 C 
HETATM   33  NBI   D T 445     -11.903 -10.456 -18.100  1.00180.77     0.143 N 
HETATM   34  CAO   D T 445     -13.127 -11.245 -17.938  1.00184.53     0.285 C 
HETATM   35  CAS   D T 445     -11.504  -9.805 -16.886  1.00176.33     0.285 C 
HETATM   36  CAQ   D T 445     -10.254  -8.965 -17.016  1.00174.56     0.285 C 
ENDBRANCH  29  30
ENDBRANCH  28  29
ENDBRANCH  27  28
ENDBRANCH  26  27
ENDBRANCH   9  26
TORSDOF 9
