REMARK  9 active torsions:
REMARK  status: ('A' for Active; 'I' for Inactive)
REMARK    1  A    between atoms: O02_2  and  CAX_24 
REMARK    2  A    between atoms: CAC_3  and  CAM_13 
REMARK    3  A    between atoms: CAC_3  and  NBH_34 
REMARK    4  A    between atoms: CAM_13  and  CAN_14 
REMARK    5  A    between atoms: CAN_14  and  OAW_23 
REMARK    6  A    between atoms: NAU_21  and  CBB_28 
REMARK    7  A    between atoms: NAU_21  and  CBE_31 
REMARK    8  A    between atoms: OAV_22  and  CBC_29 
REMARK    9  A    between atoms: OAW_23  and  CBD_30 
ROOT
HETATM    1  NAD   D T 445       6.187   0.528  -8.661  1.00172.85    -0.191 NA
HETATM    2  CAG   D T 445       5.968   1.510  -8.973  1.00172.72     0.104 C 
HETATM    3  CAH   D T 445       4.638   3.276 -10.303  1.00173.65     0.111 A 
HETATM    4  CAK   D T 445       4.602   6.982 -10.774  1.00175.08     0.045 A 
HETATM    5  CAL   D T 445       6.730   6.676  -8.959  1.00173.14     0.029 A 
HETATM    6  NAT   D T 445       4.313   4.560 -10.733  1.00174.21    -0.243 NA
HETATM    7  CBA   D T 445       5.663   2.981  -9.410  1.00172.91     0.105 A 
HETATM    8  CBC   D T 445       6.381   7.954  -9.405  1.00173.92     0.116 A 
HETATM    9  CBD   D T 445       5.307   8.132 -10.331  1.00174.94     0.118 A 
HETATM   10  CBE   D T 445       6.391   4.078  -8.912  1.00172.61     0.094 A 
HETATM   11  CBF   D T 445       5.001   5.663 -10.285  1.00174.22     0.085 A 
HETATM   12  CBG   D T 445       6.056   5.454  -9.377  1.00173.34     0.038 A 
ENDROOT
BRANCH  10  13
HETATM   13  NAU   D T 445       7.543   3.838  -7.962  1.00171.92    -0.244 NA
BRANCH  13  14
HETATM   14  CBB   D T 445       7.765   2.900  -6.848  1.00169.02     0.094 A 
HETATM   15  CAJ   D T 445       7.823   1.528  -6.923  1.00169.48     0.045 A 
HETATM   16  CAX   D T 445       8.098   0.652  -5.761  1.00166.40     0.106 A 
HETATM   17  CAY   D T 445       8.341   1.238  -4.527  1.00162.90     0.081 A 
HETATM   18 CL1    D T 445       8.701   0.310  -3.112  1.00167.07    -0.080 Cl
HETATM   19  CAI   D T 445       8.310   2.637  -4.441  1.00162.68     0.026 A 
HETATM   20  CAZ   D T 445       8.042   3.463  -5.551  1.00165.75     0.076 A 
HETATM   21 CL2    D T 445       8.034   5.153  -5.282  1.00297.59    -0.081 Cl
BRANCH  16  22
HETATM   22  O02   D T 445       8.123  -0.729  -5.884  1.00167.55    -0.327 OA
HETATM   23  C01   D T 445       9.314  -1.555  -5.756  1.00  7.55     0.181 C 
ENDBRANCH  16  22
ENDBRANCH  13  14
ENDBRANCH  10  13
BRANCH   8  24
HETATM   24  OAV   D T 445       7.136   9.014  -8.837  1.00174.06    -0.326 OA
HETATM   25  CAA   D T 445       6.753   9.534  -7.617  1.00171.51     0.181 C 
ENDBRANCH   8  24
BRANCH   9  26
HETATM   26  OAW   D T 445       4.851   9.503 -10.703  1.00176.22    -0.329 OA
BRANCH  26  27
HETATM   27  CAN   D T 445       5.525  10.162 -11.712  1.00172.41     0.151 C 
BRANCH  27  28
HETATM   28  CAM   D T 445       6.331  11.280 -11.053  1.00172.95     0.068 C 
BRANCH  28  29
HETATM   29  CAC   D T 445       7.000  12.149 -12.121  1.00176.18     0.253 C 
BRANCH  29  30
HETATM   30  NBH   D T 445       6.353  13.466 -12.076  1.00176.27     0.141 N 
HETATM   31  CAP   D T 445       6.648  14.281 -13.258  1.00179.63     0.285 C 
HETATM   32  CAR   D T 445       6.029  15.664 -13.189  1.00181.97     0.285 C 
HETATM   33  NBI   D T 445       6.360  16.346 -11.963  1.00180.77     0.143 N 
HETATM   34  CAO   D T 445       5.702  17.653 -11.890  1.00184.53     0.285 C 
HETATM   35  CAS   D T 445       6.035  15.505 -10.847  1.00176.33     0.285 C 
HETATM   36  CAQ   D T 445       6.709  14.152 -10.875  1.00174.56     0.285 C 
ENDBRANCH  29  30
ENDBRANCH  28  29
ENDBRANCH  27  28
ENDBRANCH  26  27
ENDBRANCH   9  26
TORSDOF 9
