REMARK  9 active torsions:
REMARK  status: ('A' for Active; 'I' for Inactive)
REMARK    1  A    between atoms: O02_2  and  CAX_24 
REMARK    2  A    between atoms: CAC_3  and  CAM_13 
REMARK    3  A    between atoms: CAC_3  and  NBH_34 
REMARK    4  A    between atoms: CAM_13  and  CAN_14 
REMARK    5  A    between atoms: CAN_14  and  OAW_23 
REMARK    6  A    between atoms: NAU_21  and  CBB_28 
REMARK    7  A    between atoms: NAU_21  and  CBE_31 
REMARK    8  A    between atoms: OAV_22  and  CBC_29 
REMARK    9  A    between atoms: OAW_23  and  CBD_30 
ROOT
HETATM    1  NAD   D T 445      -1.675  -3.850  -6.282  1.00172.85    -0.191 NA
HETATM    2  CAG   D T 445      -1.900  -4.872  -6.404  1.00172.72     0.104 C 
HETATM    3  CAH   D T 445      -1.358  -7.392  -6.290  1.00173.65     0.111 A 
HETATM    4  CAK   D T 445      -3.042 -10.650  -7.000  1.00175.08     0.045 A 
HETATM    5  CAL   D T 445      -5.069  -8.820  -7.678  1.00173.14     0.029 A 
HETATM    6  NAT   D T 445      -1.619  -8.752  -6.430  1.00174.21    -0.243 NA
HETATM    7  CBA   D T 445      -2.266  -6.381  -6.589  1.00172.91     0.105 A 
HETATM    8  CBC   D T 445      -5.305 -10.192  -7.807  1.00173.92     0.116 A 
HETATM    9  CBD   D T 445      -4.288 -11.139  -7.473  1.00174.94     0.118 A 
HETATM   10  CBE   D T 445      -3.533  -6.795  -7.043  1.00172.61     0.094 A 
HETATM   11  CBF   D T 445      -2.835  -9.207  -6.881  1.00174.22     0.085 A 
HETATM   12  CBG   D T 445      -3.815  -8.250  -7.206  1.00173.34     0.038 A 
ENDROOT
BRANCH  10  13
HETATM   13  NAU   D T 445      -4.566  -5.757  -7.420  1.00171.92    -0.244 NA
BRANCH  13  14
HETATM   14  CBB   D T 445      -4.949  -4.451  -6.855  1.00169.02     0.094 A 
HETATM   15  CAJ   D T 445      -4.162  -3.326  -6.770  1.00169.48     0.045 A 
HETATM   16  CAX   D T 445      -4.636  -2.031  -6.229  1.00166.40     0.106 A 
HETATM   17  CAY   D T 445      -5.954  -1.926  -5.809  1.00162.90     0.081 A 
HETATM   18 CL1    D T 445      -6.618  -0.454  -5.189  1.00167.07    -0.080 Cl
HETATM   19  CAI   D T 445      -6.774  -3.058  -5.914  1.00162.68     0.026 A 
HETATM   20  CAZ   D T 445      -6.313  -4.289  -6.424  1.00165.75     0.076 A 
HETATM   21 CL2    D T 445      -7.437  -5.579  -6.482  1.00297.59    -0.081 Cl
BRANCH  16  22
HETATM   22  O02   D T 445      -3.797  -0.931  -6.142  1.00167.55    -0.327 OA
HETATM   23  C01   D T 445      -3.926   0.281  -6.938  1.00  7.55     0.181 C 
ENDBRANCH  16  22
ENDBRANCH  13  14
ENDBRANCH  10  13
BRANCH   8  24
HETATM   24  OAV   D T 445      -6.613 -10.537  -8.240  1.00174.06    -0.326 OA
HETATM   25  CAA   D T 445      -7.626 -10.636  -7.308  1.00171.51     0.181 C 
ENDBRANCH   8  24
BRANCH   9  26
HETATM   26  OAW   D T 445      -4.585 -12.601  -7.485  1.00176.22    -0.329 OA
BRANCH  26  27
HETATM   27  CAN   D T 445      -4.495 -13.275  -8.686  1.00172.41     0.151 C 
BRANCH  27  28
HETATM   28  CAM   D T 445      -5.921 -13.610  -9.117  1.00172.95     0.068 C 
BRANCH  28  29
HETATM   29  CAC   D T 445      -5.901 -14.483 -10.375  1.00176.18     0.253 C 
BRANCH  29  30
HETATM   30  NBH   D T 445      -6.392 -15.811  -9.990  1.00176.27     0.141 N 
HETATM   31  CAP   D T 445      -6.106 -16.835 -10.999  1.00179.63     0.285 C 
HETATM   32  CAR   D T 445      -6.662 -18.197 -10.631  1.00181.97     0.285 C 
HETATM   33  NBI   D T 445      -8.063 -18.139 -10.299  1.00180.77     0.143 N 
HETATM   34  CAO   D T 445      -8.564 -19.453  -9.888  1.00184.53     0.285 C 
HETATM   35  CAS   D T 445      -8.275 -17.133  -9.299  1.00176.33     0.285 C 
HETATM   36  CAQ   D T 445      -7.787 -15.757  -9.693  1.00174.56     0.285 C 
ENDBRANCH  29  30
ENDBRANCH  28  29
ENDBRANCH  27  28
ENDBRANCH  26  27
ENDBRANCH   9  26
TORSDOF 9
