REMARK  9 active torsions:
REMARK  status: ('A' for Active; 'I' for Inactive)
REMARK    1  A    between atoms: O02_2  and  CAX_24 
REMARK    2  A    between atoms: CAC_3  and  CAM_13 
REMARK    3  A    between atoms: CAC_3  and  NBH_34 
REMARK    4  A    between atoms: CAM_13  and  CAN_14 
REMARK    5  A    between atoms: CAN_14  and  OAW_23 
REMARK    6  A    between atoms: NAU_21  and  CBB_28 
REMARK    7  A    between atoms: NAU_21  and  CBE_31 
REMARK    8  A    between atoms: OAV_22  and  CBC_29 
REMARK    9  A    between atoms: OAW_23  and  CBD_30 
ROOT
HETATM    1  NAD   D T 445      -0.948   5.857   7.741  1.00172.85    -0.191 NA
HETATM    2  CAG   D T 445      -0.203   5.456   8.368  1.00172.72     0.104 C 
HETATM    3  CAH   D T 445       0.758   3.694   9.990  1.00173.65     0.111 A 
HETATM    4  CAK   D T 445       3.912   3.067  11.890  1.00175.08     0.045 A 
HETATM    5  CAL   D T 445       4.524   5.484  10.585  1.00173.14     0.029 A 
HETATM    6  NAT   D T 445       1.720   3.128  10.822  1.00174.21    -0.243 NA
HETATM    7  CBA   D T 445       0.926   4.882   9.286  1.00172.91     0.105 A 
HETATM    8  CBC   D T 445       5.472   4.891  11.424  1.00173.92     0.116 A 
HETATM    9  CBD   D T 445       5.181   3.667  12.101  1.00174.94     0.118 A 
HETATM   10  CBE   D T 445       2.172   5.521   9.431  1.00172.61     0.094 A 
HETATM   11  CBF   D T 445       2.947   3.719  11.006  1.00174.22     0.085 A 
HETATM   12  CBG   D T 445       3.202   4.926  10.329  1.00173.34     0.038 A 
ENDROOT
BRANCH  10  13
HETATM   13  NAU   D T 445       2.423   6.835   8.724  1.00171.92    -0.244 NA
BRANCH  13  14
HETATM   14  CBB   D T 445       2.055   7.363   7.399  1.00169.02     0.094 A 
HETATM   15  CAJ   D T 445       0.784   7.599   6.929  1.00169.48     0.045 A 
HETATM   16  CAX   D T 445       0.496   8.178   5.596  1.00166.40     0.106 A 
HETATM   17  CAY   D T 445       1.559   8.536   4.780  1.00162.90     0.081 A 
HETATM   18 CL1    D T 445       1.336   9.247   3.219  1.00167.07    -0.080 Cl
HETATM   19  CAI   D T 445       2.860   8.325   5.258  1.00162.68     0.026 A 
HETATM   20  CAZ   D T 445       3.126   7.767   6.525  1.00165.75     0.076 A 
HETATM   21 CL2    D T 445       4.769   7.568   6.961  1.00297.59    -0.081 Cl
BRANCH  16  22
HETATM   22  O02   D T 445      -0.804   8.376   5.157  1.00167.55    -0.327 OA
HETATM   23  C01   D T 445      -1.429   9.675   4.957  1.00  7.55     0.181 C 
ENDBRANCH  16  22
ENDBRANCH  13  14
ENDBRANCH  10  13
BRANCH   8  24
HETATM   24  OAV   D T 445       6.716   5.574  11.498  1.00174.06    -0.326 OA
HETATM   25  CAA   D T 445       7.678   5.326  10.540  1.00171.51     0.181 C 
ENDBRANCH   8  24
BRANCH   9  26
HETATM   26  OAW   D T 445       6.239   2.970  12.890  1.00176.22    -0.329 OA
BRANCH  26  27
HETATM   27  CAN   D T 445       6.451   3.372  14.193  1.00172.41     0.151 C 
BRANCH  27  28
HETATM   28  CAM   D T 445       7.788   4.112  14.219  1.00172.95     0.068 C 
BRANCH  28  29
HETATM   29  CAC   D T 445       8.164   4.470  15.659  1.00176.18     0.253 C 
BRANCH  29  30
HETATM   30  NBH   D T 445       9.338   3.662  16.014  1.00176.27     0.141 N 
HETATM   31  CAP   D T 445       9.596   3.644  17.457  1.00179.63     0.285 C 
HETATM   32  CAR   D T 445      10.841   2.858  17.822  1.00181.97     0.285 C 
HETATM   33  NBI   D T 445      11.993   3.286  17.070  1.00180.77     0.143 N 
HETATM   34  CAO   D T 445      13.168   2.473  17.394  1.00184.53     0.285 C 
HETATM   35  CAS   D T 445      11.682   3.268  15.670  1.00176.33     0.285 C 
HETATM   36  CAQ   D T 445      10.485   4.109  15.291  1.00174.56     0.285 C 
ENDBRANCH  29  30
ENDBRANCH  28  29
ENDBRANCH  27  28
ENDBRANCH  26  27
ENDBRANCH   9  26
TORSDOF 9
