REMARK  9 active torsions:
REMARK  status: ('A' for Active; 'I' for Inactive)
REMARK    1  A    between atoms: O02_2  and  CAX_24 
REMARK    2  A    between atoms: CAC_3  and  CAM_13 
REMARK    3  A    between atoms: CAC_3  and  NBH_34 
REMARK    4  A    between atoms: CAM_13  and  CAN_14 
REMARK    5  A    between atoms: CAN_14  and  OAW_23 
REMARK    6  A    between atoms: NAU_21  and  CBB_28 
REMARK    7  A    between atoms: NAU_21  and  CBE_31 
REMARK    8  A    between atoms: OAV_22  and  CBC_29 
REMARK    9  A    between atoms: OAW_23  and  CBD_30 
ROOT
HETATM    1  NAD   D T 445      -0.409  -3.781 -12.225  1.00172.85    -0.191 NA
HETATM    2  CAG   D T 445      -1.359  -4.035 -12.601  1.00172.72     0.104 C 
HETATM    3  CAH   D T 445      -3.161  -5.694 -13.413  1.00173.65     0.111 A 
HETATM    4  CAK   D T 445      -6.678  -5.609 -14.671  1.00175.08     0.045 A 
HETATM    5  CAL   D T 445      -6.182  -2.875 -14.230  1.00173.14     0.029 A 
HETATM    6  NAT   D T 445      -4.409  -6.071 -13.903  1.00174.21    -0.243 NA
HETATM    7  CBA   D T 445      -2.782  -4.381 -13.152  1.00172.91     0.105 A 
HETATM    8  CBC   D T 445      -7.427  -3.282 -14.718  1.00173.92     0.116 A 
HETATM    9  CBD   D T 445      -7.699  -4.664 -14.954  1.00174.94     0.118 A 
HETATM   10  CBE   D T 445      -3.755  -3.392 -13.389  1.00172.61     0.094 A 
HETATM   11  CBF   D T 445      -5.389  -5.142 -14.162  1.00174.22     0.085 A 
HETATM   12  CBG   D T 445      -5.089  -3.788 -13.924  1.00173.34     0.038 A 
ENDROOT
BRANCH  10  13
HETATM   13  NAU   D T 445      -3.411  -1.937 -13.160  1.00171.92    -0.244 NA
BRANCH  13  14
HETATM   14  CBB   D T 445      -2.618  -1.228 -12.141  1.00169.02     0.094 A 
HETATM   15  CAJ   D T 445      -1.270  -1.362 -11.904  1.00169.48     0.045 A 
HETATM   16  CAX   D T 445      -0.531  -0.576 -10.888  1.00166.40     0.106 A 
HETATM   17  CAY   D T 445      -1.222   0.373 -10.148  1.00162.90     0.081 A 
HETATM   18 CL1    D T 445      -0.453   1.365  -8.958  1.00167.07    -0.080 Cl
HETATM   19  CAI   D T 445      -2.592   0.538 -10.398  1.00162.68     0.026 A 
HETATM   20  CAZ   D T 445      -3.288  -0.219 -11.362  1.00165.75     0.076 A 
HETATM   21 CL2    D T 445      -4.960   0.098 -11.544  1.00297.59    -0.081 Cl
BRANCH  16  22
HETATM   22  O02   D T 445       0.825  -0.764 -10.669  1.00167.55    -0.327 OA
HETATM   23  C01   D T 445       1.863   0.203 -10.991  1.00  7.55     0.181 C 
ENDBRANCH  16  22
ENDBRANCH  13  14
ENDBRANCH  10  13
BRANCH   8  24
HETATM   24  OAV   D T 445      -8.368  -2.234 -14.905  1.00174.06    -0.326 OA
HETATM   25  CAA   D T 445      -9.131  -1.816 -13.833  1.00171.51     0.181 C 
ENDBRANCH   8  24
BRANCH   9  26
HETATM   26  OAW   D T 445      -9.068  -5.108 -15.349  1.00176.22    -0.329 OA
BRANCH  26  27
HETATM   27  CAN   D T 445      -9.412  -5.050 -16.684  1.00172.41     0.151 C 
BRANCH  27  28
HETATM   28  CAM   D T 445     -10.411  -3.904 -16.837  1.00172.95     0.068 C 
BRANCH  28  29
HETATM   29  CAC   D T 445     -10.950  -3.862 -18.269  1.00176.18     0.253 C 
BRANCH  29  30
HETATM   30  NBH   D T 445     -12.369  -4.235 -18.210  1.00176.27     0.141 N 
HETATM   31  CAP   D T 445     -12.921  -4.569 -19.525  1.00179.63     0.285 C 
HETATM   32  CAR   D T 445     -14.401  -4.899 -19.477  1.00181.97     0.285 C 
HETATM   33  NBI   D T 445     -15.164  -3.873 -18.813  1.00180.77     0.143 N 
HETATM   34  CAO   D T 445     -16.579  -4.241 -18.722  1.00184.53     0.285 C 
HETATM   35  CAS   D T 445     -14.583  -3.603 -17.529  1.00176.33     0.285 C 
HETATM   36  CAQ   D T 445     -13.127  -3.202 -17.580  1.00174.56     0.285 C 
ENDBRANCH  29  30
ENDBRANCH  28  29
ENDBRANCH  27  28
ENDBRANCH  26  27
ENDBRANCH   9  26
TORSDOF 9
