REMARK  8 active torsions:
REMARK  status: ('A' for Active; 'I' for Inactive)
REMARK    1  A    between atoms: C20_8  and  C12_12 
REMARK    2  A    between atoms: C22_10  and  C19_16 
REMARK       I    between atoms: C22_10  and  N25_19 
REMARK    3  A    between atoms: C12_12  and  C18_15 
REMARK    4  A    between atoms: N25_19  and  C37_23 
REMARK    5  A    between atoms: C37_23  and  C38_24 
REMARK    6  A    between atoms: C38_24  and  N4_25 
REMARK    7  A    between atoms: N4_25  and  C39_26 
REMARK    8  A    between atoms: N4_25  and  C40_27 
ROOT
HETATM    1  C4    D T 299      -1.732  -2.392  15.163  1.00 31.87     0.052 C 
HETATM    2  C13   D T 299       0.087   0.057  12.952  1.00 35.43    -0.002 A 
HETATM    3  C3    D T 299       1.245   0.628  12.176  1.00 37.61     0.033 C 
HETATM    4  C14   D T 299      -1.229  -1.259  14.259  1.00 34.64     0.063 A 
HETATM    5  C18   D T 299      -1.192   0.627  13.042  1.00 34.31     0.059 A 
HETATM    6  C19   D T 299       0.080  -1.129  13.697  1.00 36.11     0.068 A 
HETATM    7  N23   D T 299      -1.982  -0.188  13.848  1.00 32.82    -0.254 NA
ENDROOT
BRANCH   5   8
HETATM    8  C12   D T 299      -1.560   1.937  12.362  1.00 31.34     0.075 C 
BRANCH   8   9
HETATM    9  C20   D T 299      -3.044   2.304  12.154  1.00 27.84     0.029 A 
HETATM   10  C17   D T 299      -3.401   3.468  11.371  1.00 29.49     0.020 A 
HETATM   11  C7    D T 299      -2.595   4.400  10.702  1.00 33.30     0.031 A 
HETATM   12  C16   D T 299      -4.764   3.556  11.342  1.00 26.85     0.084 A 
HETATM   13  C15   D T 299      -3.190   5.461   9.994  1.00 30.79     0.140 A 
HETATM   14  C5    D T 299      -4.582   5.576   9.948  1.00 28.60     0.031 A 
HETATM   15  F29   D T 299      -2.395   6.327   9.388  1.00 28.40    -0.204 F 
HETATM   16  C6    D T 299      -5.381   4.631  10.618  1.00 25.34     0.021 A 
HETATM   17  N24   D T 299      -5.272   2.458  12.103  1.00 26.35    -0.220 NA
HETATM   18  C21   D T 299      -4.239   1.708  12.597  1.00 26.17     0.209 A 
HETATM   19  O27   D T 299      -4.369   0.576  13.376  1.00 26.42    -0.170 OA
ENDBRANCH   8   9
ENDBRANCH   5   8
BRANCH   6  20
HETATM   20  C22   D T 299       1.288  -2.077  13.889  1.00 37.52     0.276 C 
HETATM   21  N25   D T 299       2.630  -1.530  14.094  1.00 36.66    -0.232 NA
HETATM   22  O28   D T 299       1.117  -3.325  13.884  1.00 36.30    -0.266 OA
BRANCH  21  23
HETATM   23  C37   D T 299       3.737  -2.413  14.282  1.00 41.76     0.164 C 
BRANCH  23  24
HETATM   24  C38   D T 299       5.050  -2.138  13.589  1.00 43.50     0.276 C 
BRANCH  24  25
HETATM   25  N4    D T 299       5.055  -1.809  12.160  1.00 42.38     0.139 N 
BRANCH  25  26
HETATM   26  C39   D T 299       5.703  -0.550  11.918  1.00 41.85     0.250 C 
HETATM   27  C42   D T 299       6.324   0.193  13.054  1.00 47.83     0.037 C 
ENDBRANCH  25  26
BRANCH  25  28
HETATM   28  C40   D T 299       5.678  -2.846  11.405  1.00 35.07     0.250 C 
HETATM   29  C41   D T 299       7.207  -2.925  11.413  1.00 41.01     0.037 C 
ENDBRANCH  25  28
ENDBRANCH  24  25
ENDBRANCH  23  24
ENDBRANCH  21  23
ENDBRANCH   6  20
TORSDOF 8
