REMARK  8 active torsions:
REMARK  status: ('A' for Active; 'I' for Inactive)
REMARK    1  A    between atoms: C20_8  and  C12_12 
REMARK    2  A    between atoms: C22_10  and  C19_16 
REMARK       I    between atoms: C22_10  and  N25_19 
REMARK    3  A    between atoms: C12_12  and  C18_15 
REMARK    4  A    between atoms: N25_19  and  C37_23 
REMARK    5  A    between atoms: C37_23  and  C38_24 
REMARK    6  A    between atoms: C38_24  and  N4_25 
REMARK    7  A    between atoms: N4_25  and  C39_26 
REMARK    8  A    between atoms: N4_25  and  C40_27 
ROOT
HETATM    1  C4    D T 299      -1.693  -3.542  15.100  1.00 31.87     0.052 C 
HETATM    2  C13   D T 299       0.251  -1.039  13.063  1.00 35.43    -0.002 A 
HETATM    3  C3    D T 299       1.440  -0.472  12.332  1.00 37.61     0.033 C 
HETATM    4  C14   D T 299      -1.133  -2.377  14.275  1.00 34.64     0.063 A 
HETATM    5  C18   D T 299      -1.001  -0.418  13.185  1.00 34.31     0.059 A 
HETATM    6  C19   D T 299       0.185  -2.270  13.728  1.00 36.11     0.068 A 
HETATM    7  N23   D T 299      -1.833  -1.247  13.932  1.00 32.82    -0.254 NA
ENDROOT
BRANCH   5   8
HETATM    8  C12   D T 299      -1.304   0.950  12.591  1.00 31.34     0.075 C 
BRANCH   8   9
HETATM    9  C20   D T 299      -2.769   1.397  12.402  1.00 27.84     0.029 A 
HETATM   10  C17   D T 299      -3.067   2.625  11.695  1.00 29.49     0.020 A 
HETATM   11  C7    D T 299      -2.214   3.561  11.093  1.00 33.30     0.031 A 
HETATM   12  C16   D T 299      -4.423   2.776  11.667  1.00 26.85     0.084 A 
HETATM   13  C15   D T 299      -2.755   4.692  10.454  1.00 30.79     0.140 A 
HETATM   14  C5    D T 299      -4.140   4.873  10.410  1.00 28.60     0.031 A 
HETATM   15  F29   D T 299      -1.918   5.558   9.909  1.00 28.40    -0.204 F 
HETATM   16  C6    D T 299      -4.986   3.924  11.012  1.00 25.34     0.021 A 
HETATM   17  N24   D T 299      -4.987   1.655  12.351  1.00 26.35    -0.220 NA
HETATM   18  C21   D T 299      -3.992   0.828  12.799  1.00 26.17     0.209 A 
HETATM   19  O27   D T 299      -4.180  -0.345  13.502  1.00 26.42    -0.170 OA
ENDBRANCH   8   9
ENDBRANCH   5   8
BRANCH   6  20
HETATM   20  C22   D T 299       1.348  -3.283  13.863  1.00 37.52     0.276 C 
HETATM   21  N25   D T 299       2.711  -2.812  14.109  1.00 36.66    -0.232 NA
HETATM   22  O28   D T 299       1.120  -4.519  13.775  1.00 36.30    -0.266 OA
BRANCH  21  23
HETATM   23  C37   D T 299       3.775  -3.756  14.243  1.00 41.76     0.164 C 
BRANCH  23  24
HETATM   24  C38   D T 299       5.105  -3.496  13.576  1.00 43.50     0.276 C 
BRANCH  24  25
HETATM   25  N4    D T 299       5.135  -3.074  12.172  1.00 42.38     0.139 N 
BRANCH  25  26
HETATM   26  C39   D T 299       5.842  -1.833  12.015  1.00 41.85     0.250 C 
HETATM   27  C42   D T 299       6.488  -1.196  13.201  1.00 47.83     0.037 C 
ENDBRANCH  25  26
BRANCH  25  28
HETATM   28  C40   D T 299       5.716  -4.087  11.352  1.00 35.07     0.250 C 
HETATM   29  C41   D T 299       7.240  -4.236  11.361  1.00 41.01     0.037 C 
ENDBRANCH  25  28
ENDBRANCH  24  25
ENDBRANCH  23  24
ENDBRANCH  21  23
ENDBRANCH   6  20
TORSDOF 8
