REMARK  8 active torsions:
REMARK  status: ('A' for Active; 'I' for Inactive)
REMARK    1  A    between atoms: C20_8  and  C12_12 
REMARK    2  A    between atoms: C22_10  and  C19_16 
REMARK       I    between atoms: C22_10  and  N25_19 
REMARK    3  A    between atoms: C12_12  and  C18_15 
REMARK    4  A    between atoms: N25_19  and  C37_23 
REMARK    5  A    between atoms: C37_23  and  C38_24 
REMARK    6  A    between atoms: C38_24  and  N4_25 
REMARK    7  A    between atoms: N4_25  and  C39_26 
REMARK    8  A    between atoms: N4_25  and  C40_27 
ROOT
HETATM    1  C4    D T 299      -5.394  -6.978 -12.462  1.00 31.87     0.052 C 
HETATM    2  C13   D T 299      -4.661  -3.622 -10.913  1.00 35.43    -0.002 A 
HETATM    3  C3    D T 299      -4.970  -2.266 -10.334  1.00 37.61     0.033 C 
HETATM    4  C14   D T 299      -4.834  -5.690 -11.845  1.00 34.64     0.063 A 
HETATM    5  C18   D T 299      -3.379  -4.170 -11.063  1.00 34.31     0.059 A 
HETATM    6  C19   D T 299      -5.585  -4.562 -11.387  1.00 36.11     0.068 A 
HETATM    7  N23   D T 299      -3.502  -5.431 -11.637  1.00 32.82    -0.254 NA
ENDROOT
BRANCH   5   8
HETATM    8  C12   D T 299      -2.113  -3.426 -10.661  1.00 31.34     0.075 C 
BRANCH   8   9
HETATM    9  C20   D T 299      -0.794  -4.203 -10.467  1.00 27.84     0.029 A 
HETATM   10  C17   D T 299       0.372  -3.532  -9.934  1.00 29.49     0.020 A 
HETATM   11  C7    D T 299       0.550  -2.204  -9.519  1.00 33.30     0.031 A 
HETATM   12  C16   D T 299       1.386  -4.443  -9.860  1.00 26.85     0.084 A 
HETATM   13  C15   D T 299       1.800  -1.786  -9.026  1.00 30.79     0.140 A 
HETATM   14  C5    D T 299       2.857  -2.697  -8.941  1.00 28.60     0.031 A 
HETATM   15  F29   D T 299       1.933  -0.523  -8.658  1.00 28.40    -0.204 F 
HETATM   16  C6    D T 299       2.664  -4.028  -9.354  1.00 25.34     0.021 A 
HETATM   17  N24   D T 299       0.872  -5.686 -10.344  1.00 26.35    -0.220 NA
HETATM   18  C21   D T 299      -0.438  -5.541 -10.715  1.00 26.17     0.209 A 
HETATM   19  O27   D T 299      -1.242  -6.540 -11.227  1.00 26.42    -0.170 OA
ENDBRANCH   8   9
ENDBRANCH   5   8
BRANCH   6  20
HETATM   20  C22   D T 299      -7.121  -4.371 -11.429  1.00 37.52     0.276 C 
HETATM   21  N25   D T 299      -7.693  -3.079 -11.810  1.00 36.66    -0.232 NA
HETATM   22  O28   D T 299      -7.884  -5.334 -11.149  1.00 36.30    -0.266 OA
BRANCH  21  23
HETATM   23  C37   D T 299      -9.111  -2.916 -11.857  1.00 41.76     0.164 C 
BRANCH  23  24
HETATM   24  C38   D T 299      -9.748  -1.664 -11.303  1.00 43.50     0.276 C 
BRANCH  24  25
HETATM   25  N4    D T 299      -9.345  -1.178  -9.979  1.00 42.38     0.139 N 
BRANCH  25  26
HETATM   26  C39   D T 299      -8.877   0.179 -10.042  1.00 41.85     0.250 C 
HETATM   27  C42   D T 299      -8.922   0.917 -11.339  1.00 47.83     0.037 C 
ENDBRANCH  25  26
BRANCH  25  28
HETATM   28  C40   D T 299     -10.421  -1.293  -9.050  1.00 35.07     0.250 C 
HETATM   29  C41   D T 299     -11.544  -0.252  -9.113  1.00 41.01     0.037 C 
ENDBRANCH  25  28
ENDBRANCH  24  25
ENDBRANCH  23  24
ENDBRANCH  21  23
ENDBRANCH   6  20
TORSDOF 8
