REMARK  18 active torsions:
REMARK  status: ('A' for Active; 'I' for Inactive)
REMARK    1  A    between atoms: C2_2  and  C6_6 
REMARK    2  A    between atoms: C6_6  and  O7_7 
REMARK    3  A    between atoms: O7_7  and  C10_8 
REMARK       I    between atoms: C10_8  and  N11_10 
REMARK    4  A    between atoms: N11_10  and  C12_11 
REMARK    5  A    between atoms: C12_11  and  C13_12 
REMARK    6  A    between atoms: C12_11  and  C26_15 
REMARK    7  A    between atoms: C13_12  and  C14_13 
REMARK    8  A    between atoms: C14_13  and  C15_14 
REMARK    9  A    between atoms: C15_14  and  C44_23 
REMARK   10  A    between atoms: C15_14  and  N58_30 
REMARK   11  A    between atoms: C26_15  and  C28_16 
REMARK   12  A    between atoms: C44_23  and  C45_24 
REMARK       I    between atoms: N58_30  and  C18_33 
REMARK   13  A    between atoms: N20_31  and  C19_32 
REMARK       I    between atoms: N20_31  and  C21_38 
REMARK   14  A    between atoms: C19_32  and  C18_33 
REMARK   15  A    between atoms: C19_32  and  C62_35 
REMARK       I    between atoms: C21_38  and  N74_39 
REMARK   16  A    between atoms: N74_39  and  C75_40 
REMARK   17  A    between atoms: C75_40  and  C77_42 
REMARK   18  A    between atoms: C82_45  and  C85_47 
ROOT
HETATM    1  C15   D T 401      -1.672   2.645   3.289  1.00 59.81     0.113 C 
ENDROOT
BRANCH   1   2
HETATM    2  C14   D T 401      -2.645   1.460   3.223  1.00 58.93     0.060 C 
BRANCH   2   3
HETATM    3  C13   D T 401      -2.341   0.362   2.177  1.00 59.07     0.177 C 
HETATM    4  O41   D T 401      -3.565  -0.284   1.846  1.00 58.43    -0.221 OA
BRANCH   3   5
HETATM    5  C12   D T 401      -1.351  -0.715   2.630  1.00 59.52     0.143 C 
BRANCH   5   6
HETATM    6  N11   D T 401      -1.850  -1.264   3.881  1.00 58.37    -0.211 NA
HETATM    7  C10   D T 401      -0.981  -1.606   4.816  1.00 59.08     0.384 C 
HETATM    8  O24   D T 401       0.229  -1.554   4.600  1.00 59.19    -0.236 OA
BRANCH   7   9
HETATM    9  O7    D T 401      -1.459  -2.028   6.125  1.00 58.33    -0.278 OA
BRANCH   9  10
HETATM   10  C6    D T 401      -0.493  -2.555   7.015  1.00 59.85     0.188 C 
BRANCH  10  11
HETATM   11  C2    D T 401      -0.998  -3.880   7.485  1.00 62.87     0.058 A 
HETATM   12  C1    D T 401      -1.617  -4.954   6.854  1.00 63.59     0.104 A 
HETATM   13  N5    D T 401      -1.924  -5.952   7.758  1.00 65.21    -0.235 NA
HETATM   14  C4    D T 401      -1.585  -5.726   9.061  1.00 64.03     0.134 A 
HETATM   15  S3    D T 401      -0.854  -4.168   9.189  1.00 63.44    -0.066 SA
ENDBRANCH  10  11
ENDBRANCH   9  10
ENDBRANCH   7   9
ENDBRANCH   5   6
BRANCH   5  16
HETATM   16  C26   D T 401      -1.067  -1.843   1.615  1.00 59.99     0.053 C 
BRANCH  16  17
HETATM   17  C28   D T 401       0.026  -2.787   2.105  1.00 61.27    -0.020 A 
HETATM   18  C31   D T 401       1.367  -2.578   1.735  1.00 62.70    -0.004 A 
HETATM   19  C32   D T 401       2.392  -3.439   2.177  1.00 62.25    -0.000 A 
HETATM   20  C33   D T 401       2.098  -4.521   3.008  1.00 60.89    -0.000 A 
HETATM   21  C34   D T 401       0.770  -4.741   3.383  1.00 61.83    -0.000 A 
HETATM   22  C35   D T 401      -0.264  -3.883   2.932  1.00 61.69    -0.004 A 
ENDBRANCH  16  17
ENDBRANCH   5  16
ENDBRANCH   3   5
ENDBRANCH   2   3
ENDBRANCH   1   2
BRANCH   1  23
HETATM   23  C44   D T 401      -2.450   3.973   3.282  1.00 61.03     0.051 C 
BRANCH  23  24
HETATM   24  C45   D T 401      -1.684   5.210   3.739  1.00 62.14    -0.020 A 
HETATM   25  C48   D T 401      -2.406   6.402   3.752  1.00 62.95    -0.004 A 
HETATM   26  C49   D T 401      -1.841   7.613   4.182  1.00 63.23    -0.000 A 
HETATM   27  C50   D T 401      -0.520   7.634   4.621  1.00 64.66    -0.000 A 
HETATM   28  C51   D T 401       0.221   6.443   4.619  1.00 64.50    -0.000 A 
HETATM   29  C52   D T 401      -0.350   5.234   4.190  1.00 63.39    -0.004 A 
ENDBRANCH  23  24
ENDBRANCH   1  23
BRANCH   1  30
HETATM   30  N58   D T 401      -0.820   2.734   2.135  1.00 60.63    -0.238 NA
HETATM   31  C18   D T 401       0.486   2.537   2.074  1.00 62.24     0.274 C 
HETATM   32  O61   D T 401       1.252   2.179   2.969  1.00 61.50    -0.268 OA
BRANCH  31  33
HETATM   33  C19   D T 401       0.975   2.847   0.700  1.00 64.75     0.188 C 
BRANCH  33  34
HETATM   34  N20   D T 401       1.425   4.223   0.655  1.00 65.69    -0.211 NA
HETATM   35  C21   D T 401       1.273   4.934  -0.432  1.00 66.79     0.343 C 
HETATM   36  N74   D T 401       2.194   5.826  -0.754  1.00 71.41    -0.294 N 
HETATM   37  O76   D T 401       0.394   4.683  -1.214  1.00 67.85    -0.245 OA
HETATM   38  C95   D T 401       3.625   5.685  -0.465  1.00 70.78     0.131 C 
BRANCH  36  39
HETATM   39  C75   D T 401       1.845   7.021  -1.505  1.00 74.33     0.152 C 
BRANCH  39  40
HETATM   40  C77   D T 401       1.050   7.889  -0.585  1.00 76.44     0.088 A 
HETATM   41  C80   D T 401      -0.080   7.463   0.123  1.00 78.25     0.053 A 
HETATM   42  S81   D T 401      -0.692   8.766   1.080  1.00 82.00    -0.070 SA
HETATM   43  C82   D T 401       0.569   9.840   0.525  1.00 80.73     0.088 A 
HETATM   44  N83   D T 401       1.397   9.193  -0.347  1.00 78.96    -0.245 NA
BRANCH  43  45
HETATM   45  C85   D T 401       0.581  11.230   1.052  1.00 81.61     0.047 C 
HETATM   46  C86   D T 401      -0.806  11.655   1.551  1.00 81.16     0.007 C 
HETATM   47  C90   D T 401       1.138  12.172  -0.029  1.00 82.31     0.007 C 
ENDBRANCH  43  45
ENDBRANCH  39  40
ENDBRANCH  36  39
ENDBRANCH  33  34
BRANCH  33  48
HETATM   48  C62   D T 401       2.143   1.924   0.299  1.00 64.68     0.032 C 
HETATM   49  C64   D T 401       1.687   0.491   0.086  1.00 64.29     0.003 C 
HETATM   50  C68   D T 401       2.891   2.445  -0.926  1.00 63.77     0.003 C 
ENDBRANCH  33  48
ENDBRANCH  31  33
ENDBRANCH   1  30
TORSDOF 18
