REMARK  3 active torsions:
REMARK  status: ('A' for Active; 'I' for Inactive)
REMARK    1  A    between atoms: C4_1  and  C7_4 
REMARK    2  A    between atoms: C22_10  and  C2_13 
REMARK    3  A    between atoms: N8_15  and  C12_19 
ROOT
HETATM    1  C7    D T   1      26.813   0.284 -29.346  1.00 10.24     0.174 A 
HETATM    2  N8    D T   1      27.621   0.123 -28.262  1.00 12.35    -0.253 N 
HETATM    3  C9    D T   1      28.648   0.969 -28.486  1.00 12.30     0.305 A 
HETATM    4  N10   D T   1      28.457   1.655 -29.632  1.00  9.49    -0.101 NA
HETATM    5  N11   D T   1      27.303   1.239 -30.166  1.00  9.08    -0.126 NA
HETATM    6  O27   D T   1      29.667   1.059 -27.647  1.00 11.66    -0.147 OA
ENDROOT
BRANCH   1   7
HETATM    7  C4    D T   1      25.525  -0.436 -29.476  1.00 10.31     0.061 A 
HETATM    8  C5    D T   1      24.293   0.203 -29.650  1.00 10.61     0.136 A 
HETATM    9  C6    D T   1      23.090  -0.524 -29.690  1.00 10.34     0.054 A 
HETATM   10  O26   D T   1      24.297   1.536 -29.775  1.00 10.14    -0.190 OA
HETATM   11  C1    D T   1      23.065  -1.927 -29.567  1.00  9.23     0.129 A 
HETATM   12  C2    D T   1      24.301  -2.557 -29.389  1.00  9.69     0.003 A 
HETATM   13  O25   D T   1      21.906  -2.583 -29.599  1.00  9.75    -0.190 OA
HETATM   14  C3    D T   1      25.483  -1.829 -29.347  1.00 10.15     0.003 A 
BRANCH  12  15
HETATM   15  C22   D T   1      24.380  -4.074 -29.276  1.00  9.53     0.024 C 
HETATM   16  C24   D T   1      25.527  -4.663 -28.417  1.00 10.85     0.005 C 
HETATM   17  C23   D T   1      24.458  -4.618 -30.721  1.00  9.87     0.005 C 
ENDBRANCH  12  15
ENDBRANCH   1   7
BRANCH   2  18
HETATM   18  C12   D T   1      27.444  -0.737 -27.211  1.00 13.09     0.069 A 
HETATM   19  C13   D T   1      26.422  -0.527 -26.268  1.00 12.86     0.019 A 
HETATM   20  C15   D T   1      26.165  -1.384 -25.189  1.00 13.97     0.019 A 
HETATM   21  C16   D T   1      26.983  -2.530 -25.071  1.00 13.12     0.060 A 
HETATM   22  C17   D T   1      27.997  -2.762 -26.014  1.00 12.73     0.019 A 
HETATM   23  N19   D T   1      26.989  -3.539 -24.157  1.00 12.86    -0.324 N 
HETATM   24  C14   D T   1      28.240  -1.887 -27.081  1.00 13.51     0.019 A 
HETATM   25  C18   D T   1      28.620  -3.948 -25.617  1.00 14.21     0.020 A 
HETATM   26  C20   D T   1      27.975  -4.411 -24.475  1.00 12.85     0.076 A 
HETATM   27  C21   D T   1      26.097  -3.688 -23.006  1.00 13.42     0.131 C 
ENDBRANCH   2  18
TORSDOF 3
