REMARK  3 active torsions:
REMARK  status: ('A' for Active; 'I' for Inactive)
REMARK    1  A    between atoms: C4_1  and  C7_4 
REMARK    2  A    between atoms: C22_10  and  C2_13 
REMARK    3  A    between atoms: N8_15  and  C12_19 
ROOT
HETATM    1  C7    D T   1      26.636   0.469 -29.104  1.00 10.24     0.174 A 
HETATM    2  N8    D T   1      27.446   0.242 -28.033  1.00 12.35    -0.253 N 
HETATM    3  C9    D T   1      28.496   1.066 -28.233  1.00 12.30     0.305 A 
HETATM    4  N10   D T   1      28.317   1.801 -29.350  1.00  9.49    -0.101 NA
HETATM    5  N11   D T   1      27.148   1.440 -29.890  1.00  9.08    -0.126 NA
HETATM    6  O27   D T   1      29.524   1.093 -27.399  1.00 11.66    -0.147 OA
ENDROOT
BRANCH   1   7
HETATM    7  C4    D T   1      25.326  -0.208 -29.250  1.00 10.31     0.061 A 
HETATM    8  C5    D T   1      24.113   0.473 -29.390  1.00 10.61     0.136 A 
HETATM    9  C6    D T   1      22.888  -0.216 -29.448  1.00 10.34     0.054 A 
HETATM   10  O26   D T   1      24.155   1.810 -29.464  1.00 10.14    -0.190 OA
HETATM   11  C1    D T   1      22.822  -1.622 -29.379  1.00  9.23     0.129 A 
HETATM   12  C2    D T   1      24.040  -2.294 -29.235  1.00  9.69     0.003 A 
HETATM   13  O25   D T   1      21.645  -2.242 -29.426  1.00  9.75    -0.190 OA
HETATM   14  C3    D T   1      25.244  -1.603 -29.174  1.00 10.15     0.003 A 
BRANCH  12  15
HETATM   15  C22   D T   1      24.076  -3.816 -29.181  1.00  9.53     0.024 C 
HETATM   16  C24   D T   1      25.211  -4.470 -28.355  1.00 10.85     0.005 C 
HETATM   17  C23   D T   1      24.127  -4.306 -30.647  1.00  9.87     0.005 C 
ENDBRANCH  12  15
ENDBRANCH   1   7
BRANCH   2  18
HETATM   18  C12   D T   1      27.252  -0.652 -27.015  1.00 13.09     0.069 A 
HETATM   19  C13   D T   1      26.243  -0.449 -26.056  1.00 12.86     0.019 A 
HETATM   20  C15   D T   1      25.968  -1.339 -25.008  1.00 13.97     0.019 A 
HETATM   21  C16   D T   1      26.752  -2.512 -24.942  1.00 13.12     0.060 A 
HETATM   22  C17   D T   1      27.753  -2.737 -25.900  1.00 12.73     0.019 A 
HETATM   23  N19   D T   1      26.735  -3.555 -24.067  1.00 12.86    -0.324 N 
HETATM   24  C14   D T   1      28.014  -1.830 -26.936  1.00 13.51     0.019 A 
HETATM   25  C18   D T   1      28.343  -3.956 -25.555  1.00 14.21     0.020 A 
HETATM   26  C20   D T   1      27.693  -4.443 -24.426  1.00 12.85     0.076 A 
HETATM   27  C21   D T   1      25.847  -3.723 -22.915  1.00 13.42     0.131 C 
ENDBRANCH   2  18
TORSDOF 3
