REMARK  3 active torsions:
REMARK  status: ('A' for Active; 'I' for Inactive)
REMARK    1  A    between atoms: C4_1  and  C7_4 
REMARK    2  A    between atoms: C22_10  and  C2_13 
REMARK    3  A    between atoms: N8_15  and  C12_19 
ROOT
HETATM    1  C7    D T   1      26.819   0.816 -29.276  1.00 10.24     0.174 A 
HETATM    2  N8    D T   1      27.626   0.730 -28.183  1.00 12.35    -0.253 N 
HETATM    3  C9    D T   1      28.612   1.618 -28.431  1.00 12.30     0.305 A 
HETATM    4  N10   D T   1      28.395   2.255 -29.601  1.00  9.49    -0.101 NA
HETATM    5  N11   D T   1      27.267   1.766 -30.125  1.00  9.08    -0.126 NA
HETATM    6  O27   D T   1      29.621   1.785 -27.591  1.00 11.66    -0.147 OA
ENDROOT
BRANCH   1   7
HETATM    7  C4    D T   1      25.568   0.030 -29.388  1.00 10.31     0.061 A 
HETATM    8  C5    D T   1      24.308   0.601 -29.589  1.00 10.61     0.136 A 
HETATM    9  C6    D T   1      23.142  -0.185 -29.610  1.00 10.34     0.054 A 
HETATM   10  O26   D T   1      24.247   1.928 -29.759  1.00 10.14    -0.190 OA
HETATM   11  C1    D T   1      23.184  -1.583 -29.441  1.00  9.23     0.129 A 
HETATM   12  C2    D T   1      24.448  -2.145 -29.236  1.00  9.69     0.003 A 
HETATM   13  O25   D T   1      22.059  -2.295 -29.456  1.00  9.75    -0.190 OA
HETATM   14  C3    D T   1      25.594  -1.359 -29.212  1.00 10.15     0.003 A 
BRANCH  12  15
HETATM   15  C22   D T   1      24.601  -3.652 -29.072  1.00  9.53     0.024 C 
HETATM   16  C24   D T   1      25.770  -4.154 -28.189  1.00 10.85     0.005 C 
HETATM   17  C23   D T   1      24.714  -4.239 -30.498  1.00  9.87     0.005 C 
ENDBRANCH  12  15
ENDBRANCH   1   7
BRANCH   2  18
HETATM   18  C12   D T   1      27.486  -0.102 -27.106  1.00 13.09     0.069 A 
HETATM   19  C13   D T   1      26.449   0.089 -26.175  1.00 12.86     0.019 A 
HETATM   20  C15   D T   1      26.226  -0.743 -25.068  1.00 13.97     0.019 A 
HETATM   21  C16   D T   1      27.099  -1.843 -24.909  1.00 13.12     0.060 A 
HETATM   22  C17   D T   1      28.129  -2.057 -25.839  1.00 12.73     0.019 A 
HETATM   23  N19   D T   1      27.148  -2.820 -23.962  1.00 12.86    -0.324 N 
HETATM   24  C14   D T   1      28.336  -1.207 -26.934  1.00 13.51     0.019 A 
HETATM   25  C18   D T   1      28.806  -3.198 -25.400  1.00 14.21     0.020 A 
HETATM   26  C20   D T   1      28.178  -3.653 -24.246  1.00 12.85     0.076 A 
HETATM   27  C21   D T   1      26.257  -2.975 -22.811  1.00 13.42     0.131 C 
ENDBRANCH   2  18
TORSDOF 3
