REMARK  9 active torsions:
REMARK  status: ('A' for Active; 'I' for Inactive)
REMARK    1  A    between atoms: O02_2  and  CAX_24 
REMARK    2  A    between atoms: CAC_3  and  CAM_13 
REMARK    3  A    between atoms: CAC_3  and  NBH_34 
REMARK    4  A    between atoms: CAM_13  and  CAN_14 
REMARK    5  A    between atoms: CAN_14  and  OAW_23 
REMARK    6  A    between atoms: NAU_21  and  CBB_28 
REMARK    7  A    between atoms: NAU_21  and  CBE_31 
REMARK    8  A    between atoms: OAV_22  and  CBC_29 
REMARK    9  A    between atoms: OAW_23  and  CBD_30 
ROOT
HETATM    1  NAD   D T 601       4.446  -1.154  -7.989  1.00 32.70    -0.191 NA
HETATM    2  CAG   D T 601       4.434  -0.063  -8.281  1.00 31.24     0.100 C 
HETATM    3  CAH   D T 601       3.306   1.888  -9.524  1.00 28.83     0.163 A 
HETATM    4  CAK   D T 601       4.111   5.661  -9.934  1.00 26.08     0.098 A 
HETATM    5  CAL   D T 601       6.431   4.768  -8.206  1.00 26.85     0.082 A 
HETATM    6  NAT   D T 601       3.225   3.262  -9.924  1.00 34.24    -0.269 NA
HETATM    7  CBA   D T 601       4.425   1.379  -8.671  1.00 30.42     0.088 A 
HETATM    8  CBC   D T 601       6.304   6.196  -8.633  1.00 23.70     0.095 A 
HETATM    9  CBD   D T 601       5.162   6.623  -9.493  1.00 25.38     0.096 A 
HETATM   10  CBE   D T 601       5.503   2.336  -8.193  1.00 37.17     0.086 A 
HETATM   11  CBF   D T 601       4.218   4.214  -9.510  1.00 28.08     0.059 A 
HETATM   12  CBG   D T 601       5.384   3.788  -8.642  1.00 29.83     0.016 A 
ENDROOT
BRANCH  10  13
HETATM   13  NAU   D T 601       6.650   1.950  -7.359  1.00 42.81    -0.249 NA
BRANCH  13  14
HETATM   14  CBB   D T 601       7.061   0.561  -7.344  1.00 45.16     0.072 A 
HETATM   15  CAJ   D T 601       7.334  -0.142  -8.644  1.00 44.00     0.098 A 
HETATM   16  CAX   D T 601       7.735  -1.582  -8.635  1.00 48.51     0.085 A 
HETATM   17  CAY   D T 601       7.866  -2.309  -7.326  1.00 53.02     0.059 A 
HETATM   18 CL1    D T 601       8.330  -3.973  -7.312  1.00 53.68    -0.085 Cl
HETATM   19  CAI   D T 601       7.595  -1.609  -6.037  1.00 46.30     0.079 A 
HETATM   20  CAZ   D T 601       7.189  -0.172  -6.036  1.00 49.16     0.055 A 
HETATM   21 CL2    D T 601       6.867   0.651  -4.542  1.00 67.83    -0.085 Cl
BRANCH  16  22
HETATM   22  O02   D T 601       7.993  -2.228  -9.823  1.00 43.57    -0.331 OA
HETATM   23  C01   D T 601       7.302  -1.873 -10.975  1.00 43.07     0.181 C 
ENDBRANCH  16  22
ENDBRANCH  13  14
ENDBRANCH  10  13
BRANCH   8  24
HETATM   24  OAV   D T 601       7.280   7.068  -8.205  1.00 30.98    -0.330 OA
HETATM   25  CAA   D T 601       8.343   6.608  -7.430  1.00 22.69     0.181 C 
ENDBRANCH   8  24
BRANCH   9  26
HETATM   26  OAW   D T 601       5.010   7.936  -9.919  1.00 39.27    -0.333 OA
BRANCH  26  27
HETATM   27  CAN   D T 601       4.208   8.213 -11.030  1.00 36.89     0.150 C 
BRANCH  27  28
HETATM   28  CAM   D T 601       3.857   9.699 -10.976  1.00 37.41     0.056 C 
BRANCH  28  29
HETATM   29  CAC   D T 601       4.600  10.338  -9.812  1.00 48.04     0.100 C 
BRANCH  29  30
HETATM   30  NBH   D T 601       4.271  11.799  -9.783  1.00 56.69    -0.365 N 
HETATM   31  CAP   D T 601       4.486  12.660  -8.621  1.00 58.94     0.121 C 
HETATM   32  CAR   D T 601       4.578  14.116  -9.109  1.00 60.67     0.121 C 
HETATM   33  NBI   D T 601       3.400  14.436  -9.871  1.00 64.46    -0.364 N 
HETATM   34  CAO   D T 601       2.357  15.213  -9.218  1.00 72.62     0.121 C 
HETATM   35  CAS   D T 601       3.146  13.558 -10.973  1.00 59.00     0.121 C 
HETATM   36  CAQ   D T 601       3.053  12.156 -10.466  1.00 59.44     0.121 C 
ENDBRANCH  29  30
ENDBRANCH  28  29
ENDBRANCH  27  28
ENDBRANCH  26  27
ENDBRANCH   9  26
TORSDOF 9
