REMARK  9 active torsions:
REMARK  status: ('A' for Active; 'I' for Inactive)
REMARK    1  A    between atoms: O02_2  and  CAX_24 
REMARK    2  A    between atoms: CAC_3  and  CAM_13 
REMARK    3  A    between atoms: CAC_3  and  NBH_34 
REMARK    4  A    between atoms: CAM_13  and  CAN_14 
REMARK    5  A    between atoms: CAN_14  and  OAW_23 
REMARK    6  A    between atoms: NAU_21  and  CBB_28 
REMARK    7  A    between atoms: NAU_21  and  CBE_31 
REMARK    8  A    between atoms: OAV_22  and  CBC_29 
REMARK    9  A    between atoms: OAW_23  and  CBD_30 
ROOT
HETATM    1  NAD   D T 601       0.397  11.000   1.029  1.00 32.70    -0.191 NA
HETATM    2  CAG   D T 601       1.403  10.868   1.523  1.00 31.24     0.100 C 
HETATM    3  CAH   D T 601       2.962   9.506   3.052  1.00 28.83     0.163 A 
HETATM    4  CAK   D T 601       6.640   9.914   4.220  1.00 26.08     0.098 A 
HETATM    5  CAL   D T 601       6.316  12.374   2.487  1.00 26.85     0.082 A 
HETATM    6  NAT   D T 601       4.219   9.273   3.702  1.00 34.24    -0.269 NA
HETATM    7  CBA   D T 601       2.734  10.700   2.181  1.00 30.42     0.088 A 
HETATM    8  CBC   D T 601       7.615  12.090   3.171  1.00 23.70     0.095 A 
HETATM    9  CBD   D T 601       7.760  10.880   4.032  1.00 25.38     0.096 A 
HETATM   10  CBE   D T 601       3.860  11.695   1.956  1.00 37.17     0.086 A 
HETATM   11  CBF   D T 601       5.320  10.180   3.534  1.00 28.08     0.059 A 
HETATM   12  CBG   D T 601       5.179  11.415   2.668  1.00 29.83     0.016 A 
ENDROOT
BRANCH  10  13
HETATM   13  NAU   D T 601       3.751  12.905   1.129  1.00 42.81    -0.249 NA
BRANCH  13  14
HETATM   14  CBB   D T 601       2.434  13.453   0.872  1.00 45.16     0.072 A 
HETATM   15  CAJ   D T 601       1.518  13.746   2.027  1.00 44.00     0.098 A 
HETATM   16  CAX   D T 601       0.150  14.289   1.765  1.00 48.51     0.085 A 
HETATM   17  CAY   D T 601      -0.292  14.540   0.350  1.00 53.02     0.059 A 
HETATM   18 CL1    D T 601      -1.871  15.169   0.044  1.00 53.68    -0.085 Cl
HETATM   19  CAI   D T 601       0.620  14.249  -0.795  1.00 46.30     0.079 A 
HETATM   20  CAZ   D T 601       1.986  13.703  -0.543  1.00 49.16     0.055 A 
HETATM   21 CL2    D T 601       3.053  13.355  -1.868  1.00 67.83    -0.085 Cl
BRANCH  16  22
HETATM   22  O02   D T 601      -0.690  14.565   2.820  1.00 43.57    -0.331 OA
HETATM   23  C01   D T 601      -0.632  13.800   3.977  1.00 43.07     0.181 C 
ENDBRANCH  16  22
ENDBRANCH  13  14
ENDBRANCH  10  13
BRANCH   8  24
HETATM   24  OAV   D T 601       8.639  12.989   2.973  1.00 30.98    -0.330 OA
HETATM   25  CAA   D T 601       8.438  14.120   2.185  1.00 22.69     0.181 C 
ENDBRANCH   8  24
BRANCH   9  26
HETATM   26  OAW   D T 601       8.945  10.581   4.691  1.00 39.27    -0.333 OA
BRANCH  26  27
HETATM   27  CAN   D T 601       8.925   9.714   5.788  1.00 36.89     0.150 C 
BRANCH  27  28
HETATM   28  CAM   D T 601      10.355   9.219   6.000  1.00 37.41     0.056 C 
BRANCH  28  29
HETATM   29  CAC   D T 601      11.275   9.937   5.023  1.00 48.04     0.100 C 
BRANCH  29  30
HETATM   30  NBH   D T 601      12.677   9.466   5.256  1.00 56.69    -0.365 N 
HETATM   31  CAP   D T 601      13.765   9.637   4.294  1.00 58.94     0.121 C 
HETATM   32  CAR   D T 601      15.099   9.565   5.056  1.00 60.67     0.121 C 
HETATM   33  NBI   D T 601      15.155   8.333   5.798  1.00 64.46    -0.364 N 
HETATM   34  CAO   D T 601      15.948   7.243   5.248  1.00 72.62     0.121 C 
HETATM   35  CAS   D T 601      14.059   8.127   6.696  1.00 59.00     0.121 C 
HETATM   36  CAQ   D T 601      12.781   8.194   5.925  1.00 59.44     0.121 C 
ENDBRANCH  29  30
ENDBRANCH  28  29
ENDBRANCH  27  28
ENDBRANCH  26  27
ENDBRANCH   9  26
TORSDOF 9
