REMARK  9 active torsions:
REMARK  status: ('A' for Active; 'I' for Inactive)
REMARK    1  A    between atoms: O02_2  and  CAX_24 
REMARK    2  A    between atoms: CAC_3  and  CAM_13 
REMARK    3  A    between atoms: CAC_3  and  NBH_34 
REMARK    4  A    between atoms: CAM_13  and  CAN_14 
REMARK    5  A    between atoms: CAN_14  and  OAW_23 
REMARK    6  A    between atoms: NAU_21  and  CBB_28 
REMARK    7  A    between atoms: NAU_21  and  CBE_31 
REMARK    8  A    between atoms: OAV_22  and  CBC_29 
REMARK    9  A    between atoms: OAW_23  and  CBD_30 
ROOT
HETATM    1  NAD   D T 601      -2.003   4.395   6.173  1.00 32.70    -0.191 NA
HETATM    2  CAG   D T 601      -1.124   4.201   6.856  1.00 31.24     0.100 C 
HETATM    3  CAH   D T 601       0.112   2.648   8.494  1.00 28.83     0.163 A 
HETATM    4  CAK   D T 601       3.427   2.912  10.493  1.00 26.08     0.098 A 
HETATM    5  CAL   D T 601       3.399   5.590   9.081  1.00 26.85     0.082 A 
HETATM    6  NAT   D T 601       1.204   2.335   9.369  1.00 34.24    -0.269 NA
HETATM    7  CBA   D T 601       0.035   3.952   7.764  1.00 30.42     0.088 A 
HETATM    8  CBC   D T 601       4.526   5.221   9.992  1.00 23.70     0.095 A 
HETATM    9  CBD   D T 601       4.525   3.903  10.691  1.00 25.38     0.096 A 
HETATM   10  CBE   D T 601       1.145   4.976   7.932  1.00 37.17     0.086 A 
HETATM   11  CBF   D T 601       2.280   3.264   9.574  1.00 28.08     0.059 A 
HETATM   12  CBG   D T 601       2.286   4.607   8.874  1.00 29.83     0.016 A 
ENDROOT
BRANCH  10  13
HETATM   13  NAU   D T 601       1.174   6.289   7.272  1.00 42.81    -0.249 NA
BRANCH  13  14
HETATM   14  CBB   D T 601      -0.074   6.859   6.806  1.00 45.16     0.072 A 
HETATM   15  CAJ   D T 601      -1.230   6.981   7.758  1.00 44.00     0.098 A 
HETATM   16  CAX   D T 601      -2.527   7.546   7.275  1.00 48.51     0.085 A 
HETATM   17  CAY   D T 601      -2.658   7.991   5.844  1.00 53.02     0.059 A 
HETATM   18 CL1    D T 601      -4.155   8.646   5.284  1.00 53.68    -0.085 Cl
HETATM   19  CAI   D T 601      -1.508   7.869   4.902  1.00 46.30     0.079 A 
HETATM   20  CAZ   D T 601      -0.210   7.302   5.375  1.00 49.16     0.055 A 
HETATM   21 CL2    D T 601       1.133   7.151   4.285  1.00 67.83    -0.085 Cl
BRANCH  16  22
HETATM   22  O02   D T 601      -3.588   7.666   8.144  1.00 43.57    -0.331 OA
HETATM   23  C01   D T 601      -3.755   6.747   9.171  1.00 43.07     0.181 C 
ENDBRANCH  16  22
ENDBRANCH  13  14
ENDBRANCH  10  13
BRANCH   8  24
HETATM   24  OAV   D T 601       5.534   6.145  10.150  1.00 30.98    -0.330 OA
HETATM   25  CAA   D T 601       5.468   7.375   9.497  1.00 22.69     0.181 C 
ENDBRANCH   8  24
BRANCH   9  26
HETATM   26  OAW   D T 601       5.546   3.522  11.551  1.00 39.27    -0.333 OA
BRANCH  26  27
HETATM   27  CAN   D T 601       5.320   2.510  12.488  1.00 36.89     0.150 C 
BRANCH  27  28
HETATM   28  CAM   D T 601       6.686   1.999  12.943  1.00 37.41     0.056 C 
BRANCH  28  29
HETATM   29  CAC   D T 601       7.770   2.853  12.301  1.00 48.04     0.100 C 
BRANCH  29  30
HETATM   30  NBH   D T 601       9.103   2.363  12.773  1.00 56.69    -0.365 N 
HETATM   31  CAP   D T 601      10.368   2.675  12.109  1.00 58.94     0.121 C 
HETATM   32  CAR   D T 601      11.505   2.505  13.131  1.00 60.67     0.121 C 
HETATM   33  NBI   D T 601      11.444   1.182  13.693  1.00 64.46    -0.364 N 
HETATM   34  CAO   D T 601      12.378   0.185  13.191  1.00 72.62     0.121 C 
HETATM   35  CAS   D T 601      10.186   0.845  14.289  1.00 59.00     0.121 C 
HETATM   36  CAQ   D T 601       9.106   1.011  13.270  1.00 59.44     0.121 C 
ENDBRANCH  29  30
ENDBRANCH  28  29
ENDBRANCH  27  28
ENDBRANCH  26  27
ENDBRANCH   9  26
TORSDOF 9
