REMARK  9 active torsions:
REMARK  status: ('A' for Active; 'I' for Inactive)
REMARK    1  A    between atoms: O02_2  and  CAX_24 
REMARK    2  A    between atoms: CAC_3  and  CAM_13 
REMARK    3  A    between atoms: CAC_3  and  NBH_34 
REMARK    4  A    between atoms: CAM_13  and  CAN_14 
REMARK    5  A    between atoms: CAN_14  and  OAW_23 
REMARK    6  A    between atoms: NAU_21  and  CBB_28 
REMARK    7  A    between atoms: NAU_21  and  CBE_31 
REMARK    8  A    between atoms: OAV_22  and  CBC_29 
REMARK    9  A    between atoms: OAW_23  and  CBD_30 
ROOT
HETATM    1  NAD   D T 601      -1.368  -2.735  -4.489  1.00 32.70    -0.191 NA
HETATM    2  CAG   D T 601      -1.800  -3.731  -4.798  1.00 31.24     0.100 C 
HETATM    3  CAH   D T 601      -1.611  -6.296  -4.896  1.00 28.83     0.163 A 
HETATM    4  CAK   D T 601      -3.873  -9.125  -6.287  1.00 26.08     0.098 A 
HETATM    5  CAL   D T 601      -5.514  -6.682  -6.998  1.00 26.85     0.082 A 
HETATM    6  NAT   D T 601      -2.105  -7.594  -5.252  1.00 34.24    -0.269 NA
HETATM    7  CBA   D T 601      -2.370  -5.047  -5.215  1.00 30.42     0.088 A 
HETATM    8  CBC   D T 601      -6.002  -8.053  -7.341  1.00 23.70     0.095 A 
HETATM    9  CBD   D T 601      -5.180  -9.250  -6.995  1.00 25.38     0.096 A 
HETATM   10  CBE   D T 601      -3.712  -5.141  -5.923  1.00 37.17     0.086 A 
HETATM   11  CBF   D T 601      -3.364  -7.748  -5.927  1.00 28.08     0.059 A 
HETATM   12  CBG   D T 601      -4.201  -6.538  -6.288  1.00 29.83     0.016 A 
ENDROOT
BRANCH  10  13
HETATM   13  NAU   D T 601      -4.542  -3.987  -6.292  1.00 42.81    -0.249 NA
BRANCH  13  14
HETATM   14  CBB   D T 601      -3.908  -2.690  -6.424  1.00 45.16     0.072 A 
HETATM   15  CAJ   D T 601      -2.705  -2.544  -7.312  1.00 44.00     0.098 A 
HETATM   16  CAX   D T 601      -2.033  -1.214  -7.432  1.00 48.51     0.085 A 
HETATM   17  CAY   D T 601      -2.571  -0.037  -6.667  1.00 53.02     0.059 A 
HETATM   18 CL1    D T 601      -1.798   1.501  -6.805  1.00 53.68    -0.085 Cl
HETATM   19  CAI   D T 601      -3.766  -0.185  -5.786  1.00 46.30     0.079 A 
HETATM   20  CAZ   D T 601      -4.441  -1.511  -5.657  1.00 49.16     0.055 A 
HETATM   21 CL2    D T 601      -5.829  -1.695  -4.630  1.00 67.83    -0.085 Cl
BRANCH  16  22
HETATM   22  O02   D T 601      -0.935  -1.073  -8.250  1.00 43.57    -0.331 OA
HETATM   23  C01   D T 601      -0.055  -2.133  -8.426  1.00 43.07     0.181 C 
ENDBRANCH  16  22
ENDBRANCH  13  14
ENDBRANCH  10  13
BRANCH   8  24
HETATM   24  OAV   D T 601      -7.215  -8.145  -7.984  1.00 30.98    -0.330 OA
HETATM   25  CAA   D T 601      -7.926  -6.992  -8.311  1.00 22.69     0.181 C 
ENDBRANCH   8  24
BRANCH   9  26
HETATM   26  OAW   D T 601      -5.590 -10.540  -7.302  1.00 39.27    -0.333 OA
BRANCH  26  27
HETATM   27  CAN   D T 601      -4.647 -11.571  -7.354  1.00 36.89     0.150 C 
BRANCH  27  28
HETATM   28  CAM   D T 601      -5.410 -12.890  -7.243  1.00 37.41     0.056 C 
BRANCH  28  29
HETATM   29  CAC   D T 601      -6.903 -12.596  -7.236  1.00 48.04     0.100 C 
BRANCH  29  30
HETATM   30  NBH   D T 601      -7.643 -13.895  -7.154  1.00 56.69    -0.365 N 
HETATM   31  CAP   D T 601      -9.046 -14.010  -6.757  1.00 58.94     0.121 C 
HETATM   32  CAR   D T 601      -9.598 -15.333  -7.314  1.00 60.67     0.121 C 
HETATM   33  NBI   D T 601      -8.767 -16.420  -6.867  1.00 64.46    -0.364 N 
HETATM   34  CAO   D T 601      -9.244 -17.230  -5.757  1.00 72.62     0.121 C 
HETATM   35  CAS   D T 601      -7.380 -16.283  -7.196  1.00 59.00     0.121 C 
HETATM   36  CAQ   D T 601      -6.873 -14.995  -6.634  1.00 59.44     0.121 C 
ENDBRANCH  29  30
ENDBRANCH  28  29
ENDBRANCH  27  28
ENDBRANCH  26  27
ENDBRANCH   9  26
TORSDOF 9
