REMARK  2 active torsions:
REMARK  status: ('A' for Active; 'I' for Inactive)
REMARK    1  A    between atoms: C4_4  and  C7_7 
REMARK    2  A    between atoms: C5_5  and  C15_15 
ROOT
HETATM    1  N1    D T 609     -16.408   0.496  13.991  1.00 25.15    -0.194 NA
HETATM    2  C2    D T 609     -15.890  -0.256  12.942  1.00 24.38     0.239 A 
HETATM    3  C3    D T 609     -17.780   0.548  14.220  1.00 25.66     0.187 A 
HETATM    4  C4    D T 609     -18.752  -0.211  13.346  1.00 26.56     0.051 A 
HETATM    5  C5    D T 609     -18.062  -1.006  12.221  1.00 25.67     0.065 A 
HETATM    6  N6    D T 609     -16.692  -1.006  12.053  1.00 24.80    -0.219 NA
HETATM    7  N13   D T 609     -18.262   1.278  15.244  1.00 25.83    -0.127 N 
HETATM    8  N14   D T 609     -14.504  -0.274  12.756  1.00 23.50    -0.060 NA
ENDROOT
BRANCH   4   9
HETATM    9  C7    D T 609     -20.188  -0.231  13.516  1.00 29.35     0.000 A 
HETATM   10  C8    D T 609     -21.107   0.504  12.680  1.00 30.48    -0.020 A 
HETATM   11  C9    D T 609     -22.523   0.426  12.872  1.00 33.48     0.064 A 
HETATM   12  C10   D T 609     -23.069  -0.434  13.955  1.00 34.74     0.040 A 
HETATM   13  C11   D T 609     -22.211  -1.183  14.815  1.00 32.11     0.007 A 
HETATM   14 CL1    D T 609     -24.707  -0.438  14.047  1.00 39.15    -0.087 Cl
HETATM   15  C12   D T 609     -20.780  -1.087  14.602  1.00 28.93     0.000 A 
ENDBRANCH   4   9
BRANCH   5  16
HETATM   16  C15   D T 609     -18.897  -1.834  11.257  1.00 26.09     0.046 C 
HETATM   17  C16   D T 609     -18.956  -3.338  11.456  1.00 25.80     0.007 C 
ENDBRANCH   5  16
TORSDOF 2
