REMARK  2 active torsions:
REMARK  status: ('A' for Active; 'I' for Inactive)
REMARK    1  A    between atoms: C4_4  and  C7_7 
REMARK    2  A    between atoms: C5_5  and  C15_15 
ROOT
HETATM    1  N1    D T 609     -20.222  -5.547  10.839  1.00 25.15    -0.194 NA
HETATM    2  C2    D T 609     -18.950  -5.860  10.372  1.00 24.38     0.239 A 
HETATM    3  C3    D T 609     -21.076  -6.544  11.301  1.00 25.66     0.187 A 
HETATM    4  C4    D T 609     -20.655  -7.995  11.317  1.00 26.56     0.051 A 
HETATM    5  C5    D T 609     -19.229  -8.218  10.777  1.00 25.67     0.065 A 
HETATM    6  N6    D T 609     -18.439  -7.178  10.332  1.00 24.80    -0.219 NA
HETATM    7  N13   D T 609     -22.303  -6.220  11.754  1.00 25.83    -0.127 N 
HETATM    8  N14   D T 609     -18.132  -4.821   9.919  1.00 23.50    -0.060 NA
ENDROOT
BRANCH   4   9
HETATM    9  C7    D T 609     -21.464  -9.095  11.792  1.00 29.35    -0.004 A 
HETATM   10  C8    D T 609     -22.135 -10.035  10.924  1.00 30.48    -0.021 A 
HETATM   11  C9    D T 609     -22.900 -11.124  11.446  1.00 33.48     0.060 A 
HETATM   12  C10   D T 609     -23.010 -11.304  12.918  1.00 34.74     0.022 A 
HETATM   13  C11   D T 609     -22.372 -10.407  13.827  1.00 32.11     0.060 A 
HETATM   14 CL1    D T 609     -23.905 -12.602  13.370  1.00 39.15    -0.091 Cl
HETATM   15  C12   D T 609     -21.603  -9.309  13.274  1.00 28.93    -0.021 A 
ENDBRANCH   4   9
BRANCH   5  16
HETATM   16  C15   D T 609     -18.646  -9.621  10.735  1.00 26.09     0.046 C 
HETATM   17  C16   D T 609     -17.651 -10.026  11.807  1.00 25.80     0.007 C 
ENDBRANCH   5  16
TORSDOF 2
