REMARK  5 active torsions:
REMARK  status: ('A' for Active; 'I' for Inactive)
REMARK    1  A    between atoms: C17_7  and  C21_10 
REMARK    2  A    between atoms: C21_10  and  O27_12 
REMARK    3  A    between atoms: O27_12  and  C15_13 
REMARK    4  A    between atoms: C14_19  and  C16_20 
REMARK    5  A    between atoms: N26_23  and  C20_25 
ROOT
HETATM    1  C15   D T3000       8.157   1.985  -7.324  1.00 38.99     0.125 A 
HETATM    2  C4    D T3000       9.235   2.371  -6.463  1.00 40.94     0.029 A 
HETATM    3  C19   D T3000       7.383   3.066  -7.872  1.00 37.27     0.173 A 
HETATM    4  N22   D T3000       6.307   2.785  -8.738  1.00 36.61    -0.078 NA
HETATM    5  N23   D T3000       7.629   4.387  -7.610  1.00 37.98    -0.228 NA
HETATM    6  C5    D T3000       8.672   4.711  -6.774  1.00 40.12     0.100 A 
HETATM    7  C14   D T3000       9.516   3.732  -6.167  1.00 40.87     0.024 A 
ENDROOT
BRANCH   1   8
HETATM    8  O27   D T3000       7.862   0.654  -7.653  1.00 42.27    -0.326 OA
BRANCH   8   9
HETATM    9  C21   D T3000       8.326  -0.536  -6.885  1.00 47.98     0.145 C 
HETATM   10  C1    D T3000       7.868  -1.777  -7.682  1.00 44.93     0.038 C 
BRANCH   9  11
HETATM   11  C17   D T3000       7.799  -0.609  -5.394  1.00 51.22     0.029 A 
HETATM   12  C13   D T3000       8.740  -0.538  -4.284  1.00 51.61     0.057 A 
HETATM   13 CL     D T3000      10.449  -0.373  -4.492  1.00 53.92    -0.083 Cl
HETATM   14  C3    D T3000       8.273  -0.607  -2.935  1.00 51.64     0.013 A 
HETATM   15  C2    D T3000       6.897  -0.748  -2.648  1.00 51.88     0.031 A 
HETATM   16  C12   D T3000       5.948  -0.824  -3.700  1.00 53.21     0.150 A 
HETATM   17  F     D T3000       4.646  -0.960  -3.391  1.00 51.93    -0.203 F 
HETATM   18  C18   D T3000       6.376  -0.755  -5.070  1.00 53.17     0.084 A 
HETATM   19 CL2    D T3000       5.121  -0.858  -6.283  1.00 65.44    -0.080 Cl
ENDBRANCH   9  11
ENDBRANCH   8   9
ENDBRANCH   1   8
BRANCH   7  20
HETATM   20  C16   D T3000      10.670   4.058  -5.242  1.00 44.81     0.041 A 
HETATM   21  C6    D T3000      11.359   5.327  -5.006  1.00 45.20     0.122 A 
HETATM   22  N24   D T3000      12.289   5.127  -4.126  1.00 48.48    -0.168 NA
HETATM   23  N26   D T3000      12.282   3.881  -3.771  1.00 52.17    -0.252 N 
HETATM   24  C7    D T3000      11.308   3.154  -4.417  1.00 48.89     0.097 A 
BRANCH  23  25
HETATM   25  C20   D T3000      13.194   3.264  -2.784  1.00 57.73     0.110 C 
HETATM   26  C8    D T3000      12.561   3.349  -1.368  1.00 60.56     0.063 C 
HETATM   27  C10   D T3000      13.512   2.699  -0.336  1.00 62.17     0.292 C 
HETATM   28  N25   D T3000      14.892   3.266  -0.387  1.00 62.01     0.339 N 
HETATM   29  C11   D T3000      15.489   3.237  -1.756  1.00 60.06     0.292 C 
HETATM   30  C9    D T3000      14.587   3.932  -2.804  1.00 59.17     0.063 C 
ENDBRANCH  23  25
ENDBRANCH   7  20
TORSDOF 5
