REMARK  5 active torsions:
REMARK  status: ('A' for Active; 'I' for Inactive)
REMARK    1  A    between atoms: C17_7  and  C21_10 
REMARK    2  A    between atoms: C21_10  and  O27_12 
REMARK    3  A    between atoms: O27_12  and  C15_13 
REMARK    4  A    between atoms: C14_19  and  C16_20 
REMARK    5  A    between atoms: N26_23  and  C20_25 
ROOT
HETATM    1  C15   D T3000      -9.609   2.692  -6.553  1.00 38.99     0.125 A 
HETATM    2  C4    D T3000     -10.916   2.154  -6.782  1.00 40.94     0.029 A 
HETATM    3  C19   D T3000      -8.513   1.853  -6.959  1.00 37.27     0.173 A 
HETATM    4  N22   D T3000      -7.188   2.302  -6.783  1.00 36.61    -0.078 NA
HETATM    5  N23   D T3000      -8.670   0.618  -7.528  1.00 37.98    -0.228 NA
HETATM    6  C5    D T3000      -9.945   0.141  -7.725  1.00 40.12     0.100 A 
HETATM    7  C14   D T3000     -11.116   0.874  -7.367  1.00 40.87     0.024 A 
ENDROOT
BRANCH   1   8
HETATM    8  O27   D T3000      -9.374   3.958  -5.996  1.00 42.27    -0.326 OA
BRANCH   8   9
HETATM    9  C21   D T3000     -10.370   4.741  -5.212  1.00 47.98     0.145 C 
HETATM   10  C1    D T3000      -9.716   6.107  -4.914  1.00 44.93     0.038 C 
BRANCH   9  11
HETATM   11  C17   D T3000     -10.846   4.050  -3.869  1.00 51.22     0.029 A 
HETATM   12  C13   D T3000     -12.239   3.654  -3.706  1.00 51.61     0.057 A 
HETATM   13 CL     D T3000     -13.446   3.895  -4.923  1.00 53.92    -0.083 Cl
HETATM   14  C3    D T3000     -12.678   3.034  -2.497  1.00 51.64     0.013 A 
HETATM   15  C2    D T3000     -11.779   2.793  -1.434  1.00 51.88     0.031 A 
HETATM   16  C12   D T3000     -10.414   3.166  -1.550  1.00 53.21     0.150 A 
HETATM   17  F     D T3000      -9.586   2.924  -0.519  1.00 51.93    -0.203 F 
HETATM   18  C18   D T3000      -9.932   3.790  -2.752  1.00 53.17     0.084 A 
HETATM   19 CL2    D T3000      -8.234   4.205  -2.784  1.00 65.44    -0.080 Cl
ENDBRANCH   9  11
ENDBRANCH   8   9
ENDBRANCH   1   8
BRANCH   7  20
HETATM   20  C16   D T3000     -12.531   0.374  -7.570  1.00 44.81     0.041 A 
HETATM   21  C6    D T3000     -13.032  -0.728  -8.392  1.00 45.20     0.122 A 
HETATM   22  N24   D T3000     -14.319  -0.785  -8.255  1.00 48.48    -0.168 NA
HETATM   23  N26   D T3000     -14.706   0.151  -7.446  1.00 52.17    -0.252 N 
HETATM   24  C7    D T3000     -13.657   0.910  -6.979  1.00 48.89     0.097 A 
BRANCH  23  25
HETATM   25  C20   D T3000     -16.103   0.409  -7.037  1.00 57.73     0.110 C 
HETATM   26  C8    D T3000     -16.428  -0.405  -5.755  1.00 60.56     0.063 C 
HETATM   27  C10   D T3000     -17.887  -0.131  -5.323  1.00 62.17     0.292 C 
HETATM   28  N25   D T3000     -18.868  -0.370  -6.423  1.00 62.01     0.339 N 
HETATM   29  C11   D T3000     -18.534   0.369  -7.679  1.00 60.06     0.292 C 
HETATM   30  C9    D T3000     -17.097   0.070  -8.170  1.00 59.17     0.063 C 
ENDBRANCH  23  25
ENDBRANCH   7  20
TORSDOF 5
