REMARK  5 active torsions:
REMARK  status: ('A' for Active; 'I' for Inactive)
REMARK    1  A    between atoms: C17_7  and  C21_10 
REMARK    2  A    between atoms: C21_10  and  O27_12 
REMARK    3  A    between atoms: O27_12  and  C15_13 
REMARK    4  A    between atoms: C14_19  and  C16_20 
REMARK    5  A    between atoms: N26_23  and  C20_25 
ROOT
HETATM    1  C15   D T3000       1.302   4.787   8.680  1.00 38.99     0.125 A 
HETATM    2  C4    D T3000       2.665   5.009   9.061  1.00 40.94     0.029 A 
HETATM    3  C19   D T3000       0.750   3.514   9.062  1.00 37.27     0.173 A 
HETATM    4  N22   D T3000      -0.588   3.209   8.738  1.00 36.61    -0.078 NA
HETATM    5  N23   D T3000       1.450   2.555   9.742  1.00 37.98    -0.228 NA
HETATM    6  C5    D T3000       2.758   2.810  10.085  1.00 40.12     0.100 A 
HETATM    7  C14   D T3000       3.422   4.033   9.765  1.00 40.87     0.024 A 
ENDROOT
BRANCH   1   8
HETATM    8  O27   D T3000       0.520   5.732   8.002  1.00 42.27    -0.326 OA
BRANCH   8   9
HETATM    9  C21   D T3000       1.058   6.895   7.241  1.00 47.98     0.145 C 
HETATM   10  C1    D T3000      -0.164   7.718   6.777  1.00 44.93     0.038 C 
BRANCH   9  11
HETATM   11  C17   D T3000       1.970   6.512   6.005  1.00 51.22     0.029 A 
HETATM   12  C13   D T3000       3.378   6.889   5.993  1.00 51.61     0.057 A 
HETATM   13 CL     D T3000       4.144   7.753   7.282  1.00 53.92    -0.083 Cl
HETATM   14  C3    D T3000       4.208   6.551   4.880  1.00 51.64     0.013 A 
HETATM   15  C2    D T3000       3.686   5.850   3.770  1.00 51.88     0.031 A 
HETATM   16  C12   D T3000       2.319   5.467   3.740  1.00 53.21     0.150 A 
HETATM   17  F     D T3000       1.855   4.803   2.667  1.00 51.93    -0.203 F 
HETATM   18  C18   D T3000       1.452   5.786   4.841  1.00 53.17     0.084 A 
HETATM   19 CL2    D T3000      -0.211   5.265   4.697  1.00 65.44    -0.080 Cl
ENDBRANCH   9  11
ENDBRANCH   8   9
ENDBRANCH   1   8
BRANCH   7  20
HETATM   20  C16   D T3000       4.860   4.342  10.127  1.00 44.81     0.041 A 
HETATM   21  C6    D T3000       5.755   3.682  11.077  1.00 45.20     0.122 A 
HETATM   22  N24   D T3000       6.896   4.294  11.053  1.00 48.48    -0.168 NA
HETATM   23  N26   D T3000       6.841   5.271  10.204  1.00 52.17    -0.252 N 
HETATM   24  C7    D T3000       5.613   5.366   9.589  1.00 48.89     0.097 A 
BRANCH  23  25
HETATM   25  C20   D T3000       7.946   6.203   9.893  1.00 57.73     0.110 C 
HETATM   26  C8    D T3000       8.785   5.639   8.715  1.00 60.56     0.063 C 
HETATM   27  C10   D T3000       9.939   6.615   8.385  1.00 62.17     0.292 C 
HETATM   28  N25   D T3000      10.770   6.948   9.579  1.00 62.01     0.339 N 
HETATM   29  C11   D T3000       9.964   7.443  10.737  1.00 60.06     0.292 C 
HETATM   30  C9    D T3000       8.837   6.459  11.130  1.00 59.17     0.063 C 
ENDBRANCH  23  25
ENDBRANCH   7  20
TORSDOF 5
