REMARK  5 active torsions:
REMARK  status: ('A' for Active; 'I' for Inactive)
REMARK    1  A    between atoms: C17_7  and  C21_10 
REMARK    2  A    between atoms: C21_10  and  O27_12 
REMARK    3  A    between atoms: O27_12  and  C15_13 
REMARK    4  A    between atoms: C14_19  and  C16_20 
REMARK    5  A    between atoms: N26_23  and  C20_25 
ROOT
HETATM    1  C15   D T3000       5.422   2.786  -8.959  1.00 38.99     0.125 A 
HETATM    2  C4    D T3000       5.796   4.144  -8.700  1.00 40.94     0.029 A 
HETATM    3  C19   D T3000       4.224   2.609  -9.735  1.00 37.27     0.173 A 
HETATM    4  N22   D T3000       3.782   1.308 -10.049  1.00 36.61    -0.078 NA
HETATM    5  N23   D T3000       3.466   3.645 -10.210  1.00 37.98    -0.228 NA
HETATM    6  C5    D T3000       3.861   4.933  -9.934  1.00 40.12     0.100 A 
HETATM    7  C14   D T3000       5.030   5.243  -9.175  1.00 40.87     0.024 A 
ENDROOT
BRANCH   1   8
HETATM    8  O27   D T3000       6.163   1.677  -8.522  1.00 42.27    -0.326 OA
BRANCH   8   9
HETATM    9  C21   D T3000       7.175   1.707  -7.429  1.00 47.98     0.145 C 
HETATM   10  C1    D T3000       7.814   0.302  -7.386  1.00 44.93     0.038 C 
BRANCH   9  11
HETATM   11  C17   D T3000       6.603   2.099  -6.006  1.00 51.22     0.029 A 
HETATM   12  C13   D T3000       7.051   3.322  -5.352  1.00 51.61     0.057 A 
HETATM   13 CL     D T3000       8.202   4.409  -6.049  1.00 53.92    -0.083 Cl
HETATM   14  C3    D T3000       6.542   3.682  -4.066  1.00 51.64     0.013 A 
HETATM   15  C2    D T3000       5.601   2.864  -3.401  1.00 51.88     0.031 A 
HETATM   16  C12   D T3000       5.141   1.664  -4.002  1.00 53.21     0.150 A 
HETATM   17  F     D T3000       4.246   0.908  -3.341  1.00 51.93    -0.203 F 
HETATM   18  C18   D T3000       5.626   1.268  -5.296  1.00 53.17     0.084 A 
HETATM   19 CL2    D T3000       4.990  -0.228  -5.940  1.00 65.44    -0.080 Cl
ENDBRANCH   9  11
ENDBRANCH   8   9
ENDBRANCH   1   8
BRANCH   7  20
HETATM   20  C16   D T3000       5.490   6.649  -8.853  1.00 44.81     0.041 A 
HETATM   21  C6    D T3000       5.089   7.929  -9.440  1.00 45.20     0.122 A 
HETATM   22  N24   D T3000       5.750   8.873  -8.847  1.00 48.48    -0.168 NA
HETATM   23  N26   D T3000       6.529   8.353  -7.951  1.00 52.17    -0.252 N 
HETATM   24  C7    D T3000       6.424   6.982  -7.894  1.00 48.89     0.097 A 
BRANCH  23  25
HETATM   25  C20   D T3000       7.441   9.107  -7.064  1.00 57.73     0.110 C 
HETATM   26  C8    D T3000       6.698   9.480  -5.753  1.00 60.56     0.063 C 
HETATM   27  C10   D T3000       7.652  10.264  -4.822  1.00 62.17     0.292 C 
HETATM   28  N25   D T3000       8.269  11.446  -5.493  1.00 62.01     0.339 N 
HETATM   29  C11   D T3000       8.942  11.104  -6.783  1.00 60.06     0.292 C 
HETATM   30  C9    D T3000       7.994  10.370  -7.761  1.00 59.17     0.063 C 
ENDBRANCH  23  25
ENDBRANCH   7  20
TORSDOF 5
