REMARK  5 active torsions:
REMARK  status: ('A' for Active; 'I' for Inactive)
REMARK    1  A    between atoms: C17_7  and  C21_10 
REMARK    2  A    between atoms: C21_10  and  O27_12 
REMARK    3  A    between atoms: O27_12  and  C15_13 
REMARK    4  A    between atoms: C14_19  and  C16_20 
REMARK    5  A    between atoms: N26_23  and  C20_25 
ROOT
HETATM    1  C15   D T3000      -4.174   1.324  13.871  1.00 38.99     0.125 A 
HETATM    2  C4    D T3000      -3.093   0.534  14.380  1.00 40.94     0.029 A 
HETATM    3  C19   D T3000      -5.445   0.656  13.787  1.00 37.27     0.173 A 
HETATM    4  N22   D T3000      -6.571   1.357  13.306  1.00 36.61    -0.078 NA
HETATM    5  N23   D T3000      -5.647  -0.646  14.158  1.00 37.98    -0.228 NA
HETATM    6  C5    D T3000      -4.579  -1.367  14.638  1.00 40.12     0.100 A 
HETATM    7  C14   D T3000      -3.267  -0.822  14.771  1.00 40.87     0.024 A 
ENDROOT
BRANCH   1   8
HETATM    8  O27   D T3000      -4.044   2.668  13.492  1.00 42.27    -0.326 OA
BRANCH   8   9
HETATM    9  C21   D T3000      -2.753   3.345  13.182  1.00 47.98     0.145 C 
HETATM   10  C1    D T3000      -3.086   4.833  12.941  1.00 44.93     0.038 C 
BRANCH   9  11
HETATM   11  C17   D T3000      -1.972   2.744  11.942  1.00 51.22     0.029 A 
HETATM   12  C13   D T3000      -0.668   2.123  12.133  1.00 51.61     0.057 A 
HETATM   13 CL     D T3000       0.109   1.994  13.674  1.00 53.92    -0.083 Cl
HETATM   14  C3    D T3000       0.046   1.582  11.020  1.00 51.64     0.013 A 
HETATM   15  C2    D T3000      -0.492   1.638   9.715  1.00 51.88     0.031 A 
HETATM   16  C12   D T3000      -1.758   2.236   9.485  1.00 53.21     0.150 A 
HETATM   17  F     D T3000      -2.239   2.274   8.229  1.00 51.93    -0.203 F 
HETATM   18  C18   D T3000      -2.509   2.790  10.578  1.00 53.17     0.084 A 
HETATM   19 CL2    D T3000      -4.056   3.500  10.178  1.00 65.44    -0.080 Cl
ENDBRANCH   9  11
ENDBRANCH   8   9
ENDBRANCH   1   8
BRANCH   7  20
HETATM   20  C16   D T3000      -2.072  -1.592  15.295  1.00 44.81     0.041 A 
HETATM   21  C6    D T3000      -2.014  -2.857  16.028  1.00 45.20     0.122 A 
HETATM   22  N24   D T3000      -0.771  -3.130  16.270  1.00 48.48    -0.168 NA
HETATM   23  N26   D T3000      -0.023  -2.191  15.782  1.00 52.17    -0.252 N 
HETATM   24  C7    D T3000      -0.755  -1.204  15.162  1.00 48.89     0.097 A 
BRANCH  23  25
HETATM   25  C20   D T3000       1.453  -2.144  15.853  1.00 57.73     0.110 C 
HETATM   26  C8    D T3000       2.056  -2.845  14.606  1.00 60.56     0.063 C 
HETATM   27  C10   D T3000       3.600  -2.792  14.677  1.00 62.17     0.292 C 
HETATM   28  N25   D T3000       4.136  -3.335  15.959  1.00 62.01     0.339 N 
HETATM   29  C11   D T3000       3.523  -2.703  17.167  1.00 60.06     0.292 C 
HETATM   30  C9    D T3000       1.978  -2.791  17.154  1.00 59.17     0.063 C 
ENDBRANCH  23  25
ENDBRANCH   7  20
TORSDOF 5
