REMARK  5 active torsions:
REMARK  status: ('A' for Active; 'I' for Inactive)
REMARK    1  A    between atoms: C17_7  and  C21_10 
REMARK    2  A    between atoms: C21_10  and  O27_12 
REMARK    3  A    between atoms: O27_12  and  C15_13 
REMARK    4  A    between atoms: C14_19  and  C16_20 
REMARK    5  A    between atoms: N26_23  and  C20_25 
ROOT
HETATM    1  C15   D T3000      42.016  19.472   7.031  1.00 38.99     0.125 A 
HETATM    2  C4    D T3000      42.967  19.776   6.004  1.00 40.94     0.029 A 
HETATM    3  C19   D T3000      42.443  18.505   8.006  1.00 37.27     0.173 A 
HETATM    4  N22   D T3000      41.578  18.149   9.061  1.00 36.61    -0.078 NA
HETATM    5  N23   D T3000      43.668  17.894   7.986  1.00 37.98    -0.228 NA
HETATM    6  C5    D T3000      44.548  18.214   6.979  1.00 40.12     0.100 A 
HETATM    7  C14   D T3000      44.246  19.158   5.951  1.00 40.87     0.024 A 
ENDROOT
BRANCH   1   8
HETATM    8  O27   D T3000      40.753  20.075   7.125  1.00 42.27    -0.326 OA
BRANCH   8   9
HETATM    9  C21   D T3000      40.062  20.783   6.011  1.00 47.98     0.145 C 
HETATM   10  C1    D T3000      38.771  21.384   6.608  1.00 44.93     0.038 C 
BRANCH   9  11
HETATM   11  C17   D T3000      39.723  19.875   4.759  1.00 51.22     0.029 A 
HETATM   12  C13   D T3000      40.342  20.151   3.469  1.00 51.61     0.057 A 
HETATM   13 CL     D T3000      41.460  21.445   3.206  1.00 53.92    -0.083 Cl
HETATM   14  C3    D T3000      40.039  19.339   2.333  1.00 51.64     0.013 A 
HETATM   15  C2    D T3000      39.135  18.258   2.432  1.00 51.88     0.031 A 
HETATM   16  C12   D T3000      38.508  17.957   3.669  1.00 53.21     0.150 A 
HETATM   17  F     D T3000      37.651  16.922   3.727  1.00 51.93    -0.203 F 
HETATM   18  C18   D T3000      38.788  18.748   4.836  1.00 53.17     0.084 A 
HETATM   19 CL2    D T3000      37.960  18.286   6.305  1.00 65.44    -0.080 Cl
ENDBRANCH   9  11
ENDBRANCH   8   9
ENDBRANCH   1   8
BRANCH   7  20
HETATM   20  C16   D T3000      45.193  19.529   4.829  1.00 44.81     0.041 A 
HETATM   21  C6    D T3000      46.631  19.294   4.693  1.00 45.20     0.122 A 
HETATM   22  N24   D T3000      47.019  19.790   3.561  1.00 48.48    -0.168 NA
HETATM   23  N26   D T3000      46.003  20.318   2.954  1.00 52.17    -0.252 N 
HETATM   24  C7    D T3000      44.837  20.196   3.675  1.00 48.89     0.097 A 
BRANCH  23  25
HETATM   25  C20   D T3000      46.042  20.983   1.634  1.00 57.73     0.110 C 
HETATM   26  C8    D T3000      45.770  19.938   0.518  1.00 60.56     0.063 C 
HETATM   27  C10   D T3000      45.805  20.633  -0.863  1.00 62.17     0.292 C 
HETATM   28  N25   D T3000      47.063  21.404  -1.088  1.00 62.01     0.339 N 
HETATM   29  C11   D T3000      47.361  22.376   0.008  1.00 60.06     0.292 C 
HETATM   30  C9    D T3000      47.391  21.699   1.399  1.00 59.17     0.063 C 
ENDBRANCH  23  25
ENDBRANCH   7  20
TORSDOF 5
