REMARK  14 active torsions:
REMARK  status: ('A' for Active; 'I' for Inactive)
REMARK    1  A    between atoms: N3_2  and  C20_12 
REMARK    2  A    between atoms: C4_3  and  C5_4 
REMARK    3  A    between atoms: C13_9  and  N2_29 
REMARK    4  A    between atoms: C17_11  and  C19_33 
REMARK    5  A    between atoms: C20_12  and  C16_31 
REMARK    6  A    between atoms: C2_23  and  C3_24 
REMARK    7  A    between atoms: C9_25  and  C12_27 
REMARK       I    between atoms: C12_27  and  N2_29 
REMARK    8  A    between atoms: N3_41  and  C20_51 
REMARK    9  A    between atoms: C4_42  and  C5_43 
REMARK   10  A    between atoms: C13_48  and  N2_68 
REMARK   11  A    between atoms: C17_50  and  C19_72 
REMARK   12  A    between atoms: C20_51  and  C16_70 
REMARK   13  A    between atoms: C2_62  and  C3_63 
REMARK   14  A    between atoms: C9_64  and  C12_66 
REMARK       I    between atoms: C12_66  and  N2_68 
ROOT
HETATM    1  C12   D T1000      -5.441   6.589   8.602  1.00 17.98     0.279 C 
HETATM    2  O1    D T1000      -5.207   5.528   8.021  1.00 17.01    -0.265 OA
HETATM    3  N2    D T1000      -5.724   7.811   7.891  1.00 17.28    -0.208 NA
ENDROOT
BRANCH   1   4
HETATM    4  C9    D T1000      -5.630   6.556  10.111  1.00 17.71     0.059 A 
HETATM    5  C8    D T1000      -6.096   7.634  10.876  1.00 17.52     0.004 A 
HETATM    6  C7    D T1000      -6.351   7.499  12.263  1.00 17.00    -0.004 A 
HETATM    7  C6    D T1000      -6.175   6.278  12.911  1.00 17.97    -0.014 A 
HETATM    8  C5    D T1000      -5.693   5.243  12.174  1.00 18.43     0.038 A 
HETATM    9  C11   D T1000      -6.418   6.082  14.368  1.00 16.62     0.032 C 
HETATM   10  C10   D T1000      -5.449   5.333  10.754  1.00 18.40     0.013 A 
BRANCH   8  11
HETATM   11  C4    D T1000      -5.482   3.890  12.707  1.00 17.09    -0.058 C 
HETATM   12  C3    D T1000      -5.344   2.808  13.069  1.00 17.10    -0.039 C 
BRANCH  12  13
HETATM   13  C2    D T1000      -5.244   1.423  13.476  1.00 16.30     0.145 A 
HETATM   14  N82   D T1000      -4.192   0.640  13.766  1.00 17.01    -0.203 N 
HETATM   15  N81   D T1000      -2.869   0.892  13.860  1.00 17.09    -0.162 NA
HETATM   16  C84   D T1000      -4.722  -0.610  14.012  1.00 17.67     0.165 A 
HETATM   17  C83   D T1000      -2.041  -0.136  14.210  1.00 18.49     0.121 A 
HETATM   18  C82   D T1000      -2.510  -1.394  14.485  1.00 18.11     0.026 A 
HETATM   19  C81   D T1000      -3.854  -1.662  14.400  1.00 17.49     0.041 A 
HETATM   20  N1    D T1000      -6.069  -0.568  13.843  1.00 17.94    -0.223 NA
HETATM   21  C1    D T1000      -6.411   0.660  13.499  1.00 17.69     0.128 A 
ENDBRANCH  12  13
ENDBRANCH   8  11
ENDBRANCH   1   4
BRANCH   3  22
HETATM   22  C13   D T1000      -5.772   8.047   6.460  1.00 16.63     0.085 A 
HETATM   23  C14   D T1000      -5.677   9.287   5.895  1.00 16.52     0.019 A 
HETATM   24  C15   D T1000      -5.814   9.470   4.511  1.00 16.39    -0.001 A 
HETATM   25  C16   D T1000      -6.075   8.372   3.681  1.00 15.29     0.015 A 
HETATM   26  C17   D T1000      -6.219   7.114   4.236  1.00 16.55     0.071 A 
HETATM   27  C18   D T1000      -6.064   6.952   5.623  1.00 16.28     0.023 A 
BRANCH  25  28
HETATM   28  C20   D T1000      -6.215   8.683   2.181  1.00 14.99     0.277 C 
BRANCH  28  29
HETATM   29  N3    D T1000      -5.263   9.707   1.746  1.00 14.64     0.146 N 
HETATM   30  C21   D T1000      -5.596  10.231   0.435  1.00 14.41     0.286 C 
HETATM   31  C22   D T1000      -4.648  11.377   0.129  1.00 14.86     0.286 C 
HETATM   32  N4    D T1000      -3.269  10.960   0.214  1.00 14.70     0.143 N 
HETATM   33  C23   D T1000      -2.928  10.464   1.532  1.00 14.86     0.286 C 
HETATM   34  C25   D T1000      -2.332  12.002  -0.235  1.00 15.24     0.285 C 
HETATM   35  C24   D T1000      -3.868   9.331   1.864  1.00 14.88     0.286 C 
ENDBRANCH  28  29
ENDBRANCH  25  28
BRANCH  26  36
HETATM   36  C19   D T1000      -6.461   5.890   3.364  1.00 17.30     0.419 C 
HETATM   37  F1    D T1000      -7.479   6.131   2.515  1.00 16.85    -0.166 F 
HETATM   38  F2    D T1000      -6.697   4.781   4.082  1.00 16.63    -0.166 F 
HETATM   39  F3    D T1000      -5.342   5.682   2.684  1.00 15.75    -0.166 F 
ENDBRANCH  26  36
ENDBRANCH   3  22
TORSDOF 14
