REMARK  14 active torsions:
REMARK  status: ('A' for Active; 'I' for Inactive)
REMARK    1  A    between atoms: N3_2  and  C20_12 
REMARK    2  A    between atoms: C4_3  and  C5_4 
REMARK    3  A    between atoms: C13_9  and  N2_29 
REMARK    4  A    between atoms: C17_11  and  C19_33 
REMARK    5  A    between atoms: C20_12  and  C16_31 
REMARK    6  A    between atoms: C2_23  and  C3_24 
REMARK    7  A    between atoms: C9_25  and  C12_27 
REMARK       I    between atoms: C12_27  and  N2_29 
REMARK    8  A    between atoms: N3_41  and  C20_51 
REMARK    9  A    between atoms: C4_42  and  C5_43 
REMARK   10  A    between atoms: C13_48  and  N2_68 
REMARK   11  A    between atoms: C17_50  and  C19_72 
REMARK   12  A    between atoms: C20_51  and  C16_70 
REMARK   13  A    between atoms: C2_62  and  C3_63 
REMARK   14  A    between atoms: C9_64  and  C12_66 
REMARK       I    between atoms: C12_66  and  N2_68 
ROOT
HETATM    1  C12   D T1000      -6.035   6.665  -1.234  1.00 17.98     0.279 C 
HETATM    2  O1    D T1000      -6.252   5.556  -0.743  1.00 17.01    -0.265 OA
HETATM    3  N2    D T1000      -5.353   7.709  -0.509  1.00 17.28    -0.208 NA
ENDROOT
BRANCH   1   4
HETATM    4  C9    D T1000      -6.319   6.864  -2.714  1.00 17.71     0.059 A 
HETATM    5  C8    D T1000      -5.936   7.993  -3.452  1.00 17.52     0.004 A 
HETATM    6  C7    D T1000      -6.139   8.064  -4.852  1.00 17.00    -0.004 A 
HETATM    7  C6    D T1000      -6.701   6.998  -5.552  1.00 17.97    -0.014 A 
HETATM    8  C5    D T1000      -7.099   5.918  -4.832  1.00 18.43     0.038 A 
HETATM    9  C11   D T1000      -6.945   7.023  -7.022  1.00 16.62     0.032 C 
HETATM   10  C10   D T1000      -6.884   5.796  -3.410  1.00 18.40     0.013 A 
BRANCH   8  11
HETATM   11  C4    D T1000      -7.681   4.708  -5.429  1.00 17.09    -0.058 C 
HETATM   12  C3    D T1000      -8.097   3.725  -5.856  1.00 17.10    -0.039 C 
BRANCH  12  13
HETATM   13  C2    D T1000      -8.541   2.450  -6.375  1.00 16.30     0.145 A 
HETATM   14  N82   D T1000      -9.745   1.855  -6.402  1.00 17.01    -0.203 N 
HETATM   15  N81   D T1000     -10.974   2.271  -6.031  1.00 17.09    -0.162 NA
HETATM   16  C84   D T1000      -9.527   0.610  -6.957  1.00 17.67     0.165 A 
HETATM   17  C83   D T1000     -12.026   1.420  -6.217  1.00 18.49     0.121 A 
HETATM   18  C82   D T1000     -11.875   0.181  -6.781  1.00 18.11     0.026 A 
HETATM   19  C81   D T1000     -10.632  -0.253  -7.169  1.00 17.49     0.041 A 
HETATM   20  N1    D T1000      -8.204   0.466  -7.230  1.00 17.94    -0.223 NA
HETATM   21  C1    D T1000      -7.577   1.570  -6.867  1.00 17.69     0.128 A 
ENDBRANCH  12  13
ENDBRANCH   8  11
ENDBRANCH   1   4
BRANCH   3  22
HETATM   22  C13   D T1000      -4.837   7.694   0.846  1.00 16.63     0.085 A 
HETATM   23  C14   D T1000      -4.552   8.824   1.560  1.00 16.52     0.019 A 
HETATM   24  C15   D T1000      -3.974   8.754   2.836  1.00 16.39    -0.001 A 
HETATM   25  C16   D T1000      -3.658   7.511   3.396  1.00 15.29     0.015 A 
HETATM   26  C17   D T1000      -3.897   6.355   2.674  1.00 16.55     0.071 A 
HETATM   27  C18   D T1000      -4.488   6.448   1.403  1.00 16.28     0.023 A 
BRANCH  25  28
HETATM   28  C20   D T1000      -3.021   7.546   4.796  1.00 14.99     0.277 C 
BRANCH  28  29
HETATM   29  N3    D T1000      -3.616   8.587   5.637  1.00 14.64     0.146 N 
HETATM   30  C21   D T1000      -2.820   8.841   6.823  1.00 14.41     0.286 C 
HETATM   31  C22   D T1000      -3.430  10.022   7.558  1.00 14.86     0.286 C 
HETATM   32  N4    D T1000      -4.818   9.789   7.873  1.00 14.70     0.143 N 
HETATM   33  C23   D T1000      -5.619   9.565   6.687  1.00 14.86     0.286 C 
HETATM   34  C25   D T1000      -5.391  10.843   8.726  1.00 15.24     0.285 C 
HETATM   35  C24   D T1000      -5.022   8.402   5.932  1.00 14.88     0.286 C 
ENDBRANCH  28  29
ENDBRANCH  25  28
BRANCH  26  36
HETATM   36  C19   D T1000      -3.606   4.982   3.264  1.00 17.30     0.419 C 
HETATM   37  F1    D T1000      -2.353   4.956   3.761  1.00 16.85    -0.166 F 
HETATM   38  F2    D T1000      -3.783   3.990   2.379  1.00 16.63    -0.166 F 
HETATM   39  F3    D T1000      -4.485   4.795   4.239  1.00 15.75    -0.166 F 
ENDBRANCH  26  36
ENDBRANCH   3  22
TORSDOF 14
