REMARK  14 active torsions:
REMARK  status: ('A' for Active; 'I' for Inactive)
REMARK    1  A    between atoms: N3_2  and  C20_12 
REMARK    2  A    between atoms: C4_3  and  C5_4 
REMARK    3  A    between atoms: C13_9  and  N2_29 
REMARK    4  A    between atoms: C17_11  and  C19_33 
REMARK    5  A    between atoms: C20_12  and  C16_31 
REMARK    6  A    between atoms: C2_23  and  C3_24 
REMARK    7  A    between atoms: C9_25  and  C12_27 
REMARK       I    between atoms: C12_27  and  N2_29 
REMARK    8  A    between atoms: N3_41  and  C20_51 
REMARK    9  A    between atoms: C4_42  and  C5_43 
REMARK   10  A    between atoms: C13_48  and  N2_68 
REMARK   11  A    between atoms: C17_50  and  C19_72 
REMARK   12  A    between atoms: C20_51  and  C16_70 
REMARK   13  A    between atoms: C2_62  and  C3_63 
REMARK   14  A    between atoms: C9_64  and  C12_66 
REMARK       I    between atoms: C12_66  and  N2_68 
ROOT
HETATM    1  C12   D T1000      -1.718  12.355  -2.135  1.00 17.98     0.279 C 
HETATM    2  O1    D T1000      -1.005  11.442  -2.555  1.00 17.01    -0.265 OA
HETATM    3  N2    D T1000      -2.922  12.769  -2.814  1.00 17.28    -0.208 NA
ENDROOT
BRANCH   1   4
HETATM    4  C9    D T1000      -1.420  12.924  -0.756  1.00 17.71     0.059 A 
HETATM    5  C8    D T1000      -2.256  13.813  -0.067  1.00 17.52     0.004 A 
HETATM    6  C7    D T1000      -1.969  14.219   1.261  1.00 17.00    -0.004 A 
HETATM    7  C6    D T1000      -0.857  13.722   1.939  1.00 17.97    -0.014 A 
HETATM    8  C5    D T1000      -0.032  12.885   1.259  1.00 18.43     0.038 A 
HETATM    9  C11   D T1000      -0.503  14.121   3.330  1.00 16.62     0.032 C 
HETATM   10  C10   D T1000      -0.306  12.426  -0.083  1.00 18.40     0.013 A 
BRANCH   8  11
HETATM   11  C4    D T1000       1.160  12.258   1.846  1.00 17.09    -0.058 C 
HETATM   12  C3    D T1000       2.075  11.712   2.277  1.00 17.10    -0.039 C 
BRANCH  12  13
HETATM   13  C2    D T1000       3.177  10.947   2.819  1.00 16.30     0.145 A 
HETATM   14  N82   D T1000       4.508  11.056   2.678  1.00 17.01    -0.203 N 
HETATM   15  N81   D T1000       5.285  11.964   2.050  1.00 17.09    -0.162 NA
HETATM   16  C84   D T1000       5.040   9.990   3.375  1.00 17.67     0.165 A 
HETATM   17  C83   D T1000       6.640  11.808   2.117  1.00 18.49     0.121 A 
HETATM   18  C82   D T1000       7.227  10.782   2.809  1.00 18.11     0.026 A 
HETATM   19  C81   D T1000       6.449   9.854   3.457  1.00 17.49     0.041 A 
HETATM   20  N1    D T1000       4.030   9.247   3.898  1.00 17.94    -0.223 NA
HETATM   21  C1    D T1000       2.881   9.802   3.558  1.00 17.69     0.128 A 
ENDBRANCH  12  13
ENDBRANCH   8  11
ENDBRANCH   1   4
BRANCH   3  22
HETATM   22  C13   D T1000      -3.498  12.260  -4.044  1.00 16.63     0.085 A 
HETATM   23  C14   D T1000      -4.411  12.949  -4.792  1.00 16.52     0.019 A 
HETATM   24  C15   D T1000      -5.002  12.376  -5.928  1.00 16.39    -0.001 A 
HETATM   25  C16   D T1000      -4.676  11.068  -6.305  1.00 15.29     0.015 A 
HETATM   26  C17   D T1000      -3.787  10.337  -5.538  1.00 16.55     0.071 A 
HETATM   27  C18   D T1000      -3.197  10.934  -4.411  1.00 16.28     0.023 A 
BRANCH  25  28
HETATM   28  C20   D T1000      -5.385  10.534  -7.562  1.00 14.99     0.277 C 
BRANCH  28  29
HETATM   29  N3    D T1000      -5.523  11.568  -8.589  1.00 14.64     0.146 N 
HETATM   30  C21   D T1000      -6.458  11.176  -9.627  1.00 14.41     0.286 C 
HETATM   31  C22   D T1000      -6.645  12.355 -10.565  1.00 14.86     0.286 C 
HETATM   32  N4    D T1000      -5.386  12.804 -11.108  1.00 14.70     0.143 N 
HETATM   33  C23   D T1000      -4.463  13.224 -10.074  1.00 14.86     0.286 C 
HETATM   34  C25   D T1000      -5.551  13.837 -12.143  1.00 15.24     0.285 C 
HETATM   35  C24   D T1000      -4.272  12.071  -9.120  1.00 14.88     0.286 C 
ENDBRANCH  28  29
ENDBRANCH  25  28
BRANCH  26  36
HETATM   36  C19   D T1000      -3.375   8.926  -5.937  1.00 17.30     0.419 C 
HETATM   37  F1    D T1000      -4.473   8.186  -6.190  1.00 16.85    -0.166 F 
HETATM   38  F2    D T1000      -2.607   8.331  -5.013  1.00 16.63    -0.166 F 
HETATM   39  F3    D T1000      -2.642   9.043  -7.036  1.00 15.75    -0.166 F 
ENDBRANCH  26  36
ENDBRANCH   3  22
TORSDOF 14
