REMARK  14 active torsions:
REMARK  status: ('A' for Active; 'I' for Inactive)
REMARK    1  A    between atoms: N3_2  and  C20_12 
REMARK    2  A    between atoms: C4_3  and  C5_4 
REMARK    3  A    between atoms: C13_9  and  N2_29 
REMARK    4  A    between atoms: C17_11  and  C19_33 
REMARK    5  A    between atoms: C20_12  and  C16_31 
REMARK    6  A    between atoms: C2_23  and  C3_24 
REMARK    7  A    between atoms: C9_25  and  C12_27 
REMARK       I    between atoms: C12_27  and  N2_29 
REMARK    8  A    between atoms: N3_41  and  C20_51 
REMARK    9  A    between atoms: C4_42  and  C5_43 
REMARK   10  A    between atoms: C13_48  and  N2_68 
REMARK   11  A    between atoms: C17_50  and  C19_72 
REMARK   12  A    between atoms: C20_51  and  C16_70 
REMARK   13  A    between atoms: C2_62  and  C3_63 
REMARK   14  A    between atoms: C9_64  and  C12_66 
REMARK       I    between atoms: C12_66  and  N2_68 
ROOT
HETATM    1  C12   D T1000      -4.999   6.020   9.050  1.00 17.98     0.279 C 
HETATM    2  O1    D T1000      -4.804   4.988   8.405  1.00 17.01    -0.265 OA
HETATM    3  N2    D T1000      -5.219   7.296   8.416  1.00 17.28    -0.208 NA
ENDROOT
BRANCH   1   4
HETATM    4  C9    D T1000      -5.209   5.900  10.552  1.00 17.71     0.059 A 
HETATM    5  C8    D T1000      -5.639   6.947  11.379  1.00 17.52     0.004 A 
HETATM    6  C7    D T1000      -5.918   6.736  12.753  1.00 17.00    -0.004 A 
HETATM    7  C6    D T1000      -5.803   5.470  13.323  1.00 17.97    -0.014 A 
HETATM    8  C5    D T1000      -5.358   4.464  12.527  1.00 18.43     0.038 A 
HETATM    9  C11   D T1000      -6.075   5.194  14.762  1.00 16.62     0.032 C 
HETATM   10  C10   D T1000      -5.091   4.632  11.118  1.00 18.40     0.013 A 
BRANCH   8  11
HETATM   11  C4    D T1000      -5.213   3.071  12.975  1.00 17.09    -0.058 C 
HETATM   12  C3    D T1000      -5.127   1.963  13.269  1.00 17.10    -0.039 C 
BRANCH  12  13
HETATM   13  C2    D T1000      -5.093   0.553  13.587  1.00 16.30     0.145 A 
HETATM   14  N82   D T1000      -4.080  -0.293  13.838  1.00 17.01    -0.203 N 
HETATM   15  N81   D T1000      -2.749  -0.107  13.961  1.00 17.09    -0.162 NA
HETATM   16  C84   D T1000      -4.667  -1.532  13.998  1.00 17.67     0.165 A 
HETATM   17  C83   D T1000      -1.971  -1.191  14.254  1.00 18.49     0.121 A 
HETATM   18  C82   D T1000      -2.498  -2.441  14.444  1.00 18.11     0.026 A 
HETATM   19  C81   D T1000      -3.851  -2.644  14.328  1.00 17.49     0.041 A 
HETATM   20  N1    D T1000      -6.009  -1.419  13.818  1.00 17.94    -0.223 NA
HETATM   21  C1    D T1000      -6.292  -0.158  13.549  1.00 17.69     0.128 A 
ENDBRANCH  12  13
ENDBRANCH   8  11
ENDBRANCH   1   4
BRANCH   3  22
HETATM   22  C13   D T1000      -5.237   7.623   7.003  1.00 16.63     0.085 A 
HETATM   23  C14   D T1000      -5.080   8.892   6.519  1.00 16.52     0.019 A 
HETATM   24  C15   D T1000      -5.192   9.167   5.148  1.00 16.39    -0.001 A 
HETATM   25  C16   D T1000      -5.489   8.137   4.247  1.00 15.29     0.015 A 
HETATM   26  C17   D T1000      -5.694   6.854   4.719  1.00 16.55     0.071 A 
HETATM   27  C18   D T1000      -5.566   6.598   6.095  1.00 16.28     0.023 A 
BRANCH  25  28
HETATM   28  C20   D T1000      -5.595   8.548   2.768  1.00 14.99     0.277 C 
BRANCH  28  29
HETATM   29  N3    D T1000      -4.593   9.554   2.410  1.00 14.64     0.146 N 
HETATM   30  C21   D T1000      -4.885  10.174   1.131  1.00 14.41     0.286 C 
HETATM   31  C22   D T1000      -3.884  11.294   0.909  1.00 14.86     0.286 C 
HETATM   32  N4    D T1000      -2.527  10.812   0.982  1.00 14.70     0.143 N 
HETATM   33  C23   D T1000      -2.225  10.219   2.269  1.00 14.86     0.286 C 
HETATM   34  C25   D T1000      -1.539  11.838   0.610  1.00 15.24     0.285 C 
HETATM   35  C24   D T1000      -3.218   9.110   2.518  1.00 14.88     0.286 C 
ENDBRANCH  28  29
ENDBRANCH  25  28
BRANCH  26  36
HETATM   36  C19   D T1000      -5.979   5.699   3.768  1.00 17.30     0.419 C 
HETATM   37  F1    D T1000      -6.974   6.038   2.925  1.00 16.85    -0.166 F 
HETATM   38  F2    D T1000      -6.272   4.559   4.412  1.00 16.63    -0.166 F 
HETATM   39  F3    D T1000      -4.860   5.485   3.089  1.00 15.75    -0.166 F 
ENDBRANCH  26  36
ENDBRANCH   3  22
TORSDOF 14
