REMARK  5 active torsions:
REMARK  status: ('A' for Active; 'I' for Inactive)
REMARK    1  A    between atoms: N6_6  and  S7_7 
REMARK    2  A    between atoms: S7_7  and  C10_10 
REMARK    3  A    between atoms: C13_13  and  C16_16 
REMARK    4  A    between atoms: C20_20  and  C22_22 
REMARK       I    between atoms: C22_22  and  N24_24 
REMARK    5  A    between atoms: N24_24  and  C25_25 
ROOT
HETATM    1  C10   D T1385      26.440 -18.414   9.860  1.00 57.68     0.103 A 
HETATM    2  C11   D T1385      26.361 -18.811   8.515  1.00 54.26     0.013 A 
HETATM    3  C12   D T1385      25.145 -18.894   7.865  1.00 48.90     0.002 A 
HETATM    4  C13   D T1385      23.960 -18.587   8.551  1.00 50.29     0.019 A 
HETATM    5  C14   D T1385      24.037 -18.157   9.889  1.00 51.45     0.002 A 
HETATM    6  C15   D T1385      25.257 -18.096  10.534  1.00 54.38     0.013 A 
ENDROOT
BRANCH   4   7
HETATM    7  C16   D T1385      22.634 -18.610   7.857  1.00 50.04     0.101 A 
HETATM    8  C17   D T1385      22.439 -19.325   6.657  1.00 50.19     0.119 A 
HETATM    9  N18   D T1385      21.282 -19.252   6.017  1.00 49.80    -0.227 NA
HETATM   10  C19   D T1385      20.262 -18.531   6.506  1.00 47.61     0.173 A 
HETATM   11  C20   D T1385      20.433 -17.818   7.722  1.00 48.53     0.170 A 
HETATM   12  N31   D T1385      19.071 -18.494   5.806  1.00 45.02    -0.078 NA
HETATM   13  N21   D T1385      21.622 -17.881   8.343  1.00 49.17    -0.236 NA
BRANCH  11  14
HETATM   14  C22   D T1385      19.374 -16.966   8.316  1.00 48.43     0.299 C 
HETATM   15  O23   D T1385      18.293 -16.837   7.755  1.00 48.88    -0.263 OA
HETATM   16  N24   D T1385      19.690 -16.312   9.471  1.00 47.37    -0.205 NA
BRANCH  16  17
HETATM   17  C25   D T1385      18.902 -15.455  10.249  1.00 45.74     0.104 A 
HETATM   18  C26   D T1385      19.515 -14.848  11.339  1.00 45.70     0.022 A 
HETATM   19  C27   D T1385      18.794 -13.970  12.148  1.00 47.37     0.022 A 
HETATM   20  C28   D T1385      17.449 -13.777  11.868  1.00 50.45     0.099 A 
HETATM   21  N29   D T1385      16.871 -14.376  10.828  1.00 52.66    -0.241 NA
HETATM   22  C30   D T1385      17.537 -15.209  10.031  1.00 50.21     0.118 A 
ENDBRANCH  16  17
ENDBRANCH  11  14
ENDBRANCH   4   7
BRANCH   1  23
HETATM   23  S7    D T1385      28.017 -18.343  10.703  1.00 58.55     0.264 S 
HETATM   24  O8    D T1385      27.826 -17.693  11.960  1.00 56.62    -0.200 OA
HETATM   25  O9    D T1385      28.973 -17.878   9.747  1.00 53.39    -0.200 OA
BRANCH  23  26
HETATM   26  N6    D T1385      28.411 -19.910  11.056  1.00 64.29    -0.270 N 
HETATM   27  C5    D T1385      28.118 -20.422  12.417  1.00 67.15     0.148 C 
HETATM   28  C4    D T1385      27.633 -21.881  12.342  1.00 70.71     0.275 C 
HETATM   29  N2    D T1385      28.594 -22.639  11.526  1.00 71.36     0.143 N 
HETATM   30  C1    D T1385      28.626 -22.234  10.104  1.00 69.90     0.275 C 
HETATM   31  C3    D T1385      28.415 -24.083  11.706  1.00 74.69     0.286 C 
HETATM   32  C6    D T1385      29.061 -20.758  10.007  1.00 67.38     0.148 C 
ENDBRANCH  23  26
ENDBRANCH   1  23
TORSDOF 5
