REMARK  7 active torsions:
REMARK  status: ('A' for Active; 'I' for Inactive)
REMARK    1  A    between atoms: C22_10  and  C19_16 
REMARK       I    between atoms: C22_10  and  N25_19 
REMARK    2  A    between atoms: C12_12  and  C18_15 
REMARK    3  A    between atoms: N25_19  and  C37_23 
REMARK    4  A    between atoms: C37_23  and  C38_24 
REMARK    5  A    between atoms: C38_24  and  N4_25 
REMARK    6  A    between atoms: N4_25  and  C39_26 
REMARK    7  A    between atoms: N4_25  and  C40_27 
ROOT
HETATM    1  C4    D T2000      -4.232  -9.355  11.618  1.00 48.44     0.052 C 
HETATM    2  C13   D T2000      -1.708  -6.502  11.375  1.00 48.75     0.002 A 
HETATM    3  C3    D T2000      -0.419  -5.600  11.419  1.00 43.40     0.033 C 
HETATM    4  C14   D T2000      -3.320  -8.126  11.471  1.00 49.83     0.064 A 
HETATM    5  C18   D T2000      -2.956  -6.017  10.930  1.00 45.93     0.077 A 
HETATM    6  C19   D T2000      -1.942  -7.917  11.736  1.00 51.55     0.069 A 
HETATM    7  N23   D T2000      -3.855  -7.004  11.010  1.00 47.90    -0.250 NA
ENDROOT
BRANCH   5   8
HETATM    8  C12   D T2000      -3.212  -4.644  10.448  1.00 43.39     0.024 C 
HETATM    9  C20   D T2000      -4.402  -4.017   9.988  1.00 43.86     0.061 A 
HETATM   10  C17   D T2000      -4.594  -2.602   9.462  1.00 43.90     0.025 A 
HETATM   11  C21   D T2000      -5.791  -4.527   9.876  1.00 40.96     0.279 A 
HETATM   12  C7    D T2000      -3.659  -1.510   9.280  1.00 45.29     0.031 A 
HETATM   13  C16   D T2000      -5.945  -2.456   9.124  1.00 41.24     0.085 A 
HETATM   14  C15   D T2000      -4.137  -0.302   8.760  1.00 46.91     0.140 A 
HETATM   15  C5    D T2000      -5.518  -0.189   8.425  1.00 46.93     0.031 A 
HETATM   16  F29   D T2000      -3.346   0.758   8.567  1.00 48.65    -0.204 F 
HETATM   17  C6    D T2000      -6.437  -1.259   8.600  1.00 43.16     0.021 A 
HETATM   18  N24   D T2000      -6.634  -3.591   9.375  1.00 38.68    -0.208 NA
HETATM   19  O27   D T2000      -6.142  -5.633  10.189  1.00 39.38    -0.265 OA
ENDBRANCH   5   8
BRANCH   6  20
HETATM   20  C22   D T2000      -0.997  -8.985  12.276  1.00 57.19     0.276 C 
HETATM   21  N25   D T2000      -1.442 -10.235  12.532  1.00 64.68    -0.232 NA
HETATM   22  O28   D T2000       0.204  -8.810  12.509  1.00 55.46    -0.266 OA
BRANCH  21  23
HETATM   23  C37   D T2000      -0.551 -11.287  13.042  1.00 72.35     0.164 C 
BRANCH  23  24
HETATM   24  C38   D T2000      -0.463 -12.679  12.347  1.00 75.73     0.276 C 
BRANCH  24  25
HETATM   25  N4    D T2000       0.400 -13.566  13.215  1.00 81.36     0.139 N 
BRANCH  25  26
HETATM   26  C39   D T2000       1.392 -14.293  12.306  1.00 83.55     0.250 C 
HETATM   27  C42   D T2000       2.619 -15.145  12.833  1.00 84.17     0.037 C 
ENDBRANCH  25  26
BRANCH  25  28
HETATM   28  C40   D T2000      -0.466 -14.487  14.135  1.00 83.04     0.250 C 
HETATM   29  C41   D T2000      -0.560 -14.285  15.679  1.00 82.57     0.037 C 
ENDBRANCH  25  28
ENDBRANCH  24  25
ENDBRANCH  23  24
ENDBRANCH  21  23
ENDBRANCH   6  20
TORSDOF 7
