REMARK  7 active torsions:
REMARK  status: ('A' for Active; 'I' for Inactive)
REMARK    1  A    between atoms: C22_10  and  C19_16 
REMARK       I    between atoms: C22_10  and  N25_19 
REMARK    2  A    between atoms: C12_12  and  C18_15 
REMARK    3  A    between atoms: N25_19  and  C37_23 
REMARK    4  A    between atoms: C37_23  and  C38_24 
REMARK    5  A    between atoms: C38_24  and  N4_25 
REMARK    6  A    between atoms: N4_25  and  C39_26 
REMARK    7  A    between atoms: N4_25  and  C40_27 
ROOT
HETATM    1  C4    D T2000       3.938   8.372 -10.571  1.00 48.44     0.052 C 
HETATM    2  C13   D T2000       6.187   7.029  -7.795  1.00 48.75     0.002 A 
HETATM    3  C3    D T2000       7.215   6.857  -6.617  1.00 43.40     0.033 C 
HETATM    4  C14   D T2000       4.793   7.704  -9.483  1.00 49.83     0.064 A 
HETATM    5  C18   D T2000       5.488   5.938  -8.354  1.00 45.93     0.077 A 
HETATM    6  C19   D T2000       5.724   8.218  -8.544  1.00 51.55     0.069 A 
HETATM    7  N23   D T2000       4.695   6.390  -9.332  1.00 47.90    -0.250 NA
ENDROOT
BRANCH   5   8
HETATM    8  C12   D T2000       5.614   4.533  -7.916  1.00 43.39     0.024 C 
HETATM    9  C20   D T2000       4.994   3.343  -8.386  1.00 43.86     0.061 A 
HETATM   10  C17   D T2000       5.134   1.921  -7.862  1.00 43.90     0.025 A 
HETATM   11  C21   D T2000       4.042   3.116  -9.502  1.00 40.96     0.279 A 
HETATM   12  C7    D T2000       5.913   1.373  -6.770  1.00 45.29     0.031 A 
HETATM   13  C16   D T2000       4.319   1.099  -8.649  1.00 41.24     0.085 A 
HETATM   14  C15   D T2000       5.834  -0.001  -6.518  1.00 46.91     0.140 A 
HETATM   15  C5    D T2000       4.991  -0.809  -7.338  1.00 46.93     0.031 A 
HETATM   16  F29   D T2000       6.523  -0.590  -5.537  1.00 48.65    -0.204 F 
HETATM   17  C6    D T2000       4.226  -0.274  -8.409  1.00 43.16     0.021 A 
HETATM   18  N24   D T2000       3.688   1.812  -9.606  1.00 38.68    -0.208 NA
HETATM   19  O27   D T2000       3.626   3.975 -10.233  1.00 39.38    -0.265 OA
ENDBRANCH   5   8
BRANCH   6  20
HETATM   20  C22   D T2000       6.095   9.691  -8.417  1.00 57.19     0.276 C 
HETATM   21  N25   D T2000       5.528  10.617  -9.222  1.00 64.68    -0.232 NA
HETATM   22  O28   D T2000       6.904  10.146  -7.602  1.00 55.46    -0.266 OA
BRANCH  21  23
HETATM   23  C37   D T2000       5.859  12.046  -9.115  1.00 72.35     0.164 C 
BRANCH  23  24
HETATM   24  C38   D T2000       4.745  13.126  -8.979  1.00 75.73     0.276 C 
BRANCH  24  25
HETATM   25  N4    D T2000       5.411  14.479  -9.066  1.00 81.36     0.139 N 
BRANCH  25  26
HETATM   26  C39   D T2000       4.845  15.357  -7.949  1.00 83.55     0.250 C 
HETATM   27  C42   D T2000       5.432  16.772  -7.547  1.00 84.17     0.037 C 
ENDBRANCH  25  26
BRANCH  25  28
HETATM   28  C40   D T2000       5.308  15.078 -10.508  1.00 83.04     0.250 C 
HETATM   29  C41   D T2000       6.540  15.208 -11.456  1.00 82.57     0.037 C 
ENDBRANCH  25  28
ENDBRANCH  24  25
ENDBRANCH  23  24
ENDBRANCH  21  23
ENDBRANCH   6  20
TORSDOF 7
