REMARK  7 active torsions:
REMARK  status: ('A' for Active; 'I' for Inactive)
REMARK    1  A    between atoms: C22_10  and  C19_16 
REMARK       I    between atoms: C22_10  and  N25_19 
REMARK    2  A    between atoms: C12_12  and  C18_15 
REMARK    3  A    between atoms: N25_19  and  C37_23 
REMARK    4  A    between atoms: C37_23  and  C38_24 
REMARK    5  A    between atoms: C38_24  and  N4_25 
REMARK    6  A    between atoms: N4_25  and  C39_26 
REMARK    7  A    between atoms: N4_25  and  C40_27 
ROOT
HETATM    1  C4    D T2000       5.573   2.223  12.085  1.00 48.44     0.052 C 
HETATM    2  C13   D T2000       5.623   5.058   9.530  1.00 48.75     0.002 A 
HETATM    3  C3    D T2000       6.010   6.281   8.618  1.00 43.40     0.033 C 
HETATM    4  C14   D T2000       5.462   3.328  11.022  1.00 49.83     0.064 A 
HETATM    5  C18   D T2000       4.362   4.430   9.457  1.00 45.93     0.077 A 
HETATM    6  C19   D T2000       6.368   4.323  10.575  1.00 51.55     0.069 A 
HETATM    7  N23   D T2000       4.325   3.432  10.349  1.00 47.90    -0.250 NA
ENDROOT
BRANCH   5   8
HETATM    8  C12   D T2000       3.273   4.813   8.536  1.00 43.39     0.024 C 
HETATM    9  C20   D T2000       1.962   4.289   8.360  1.00 43.86     0.061 A 
HETATM   10  C17   D T2000       0.894   4.703   7.359  1.00 43.90     0.025 A 
HETATM   11  C21   D T2000       1.243   3.205   9.075  1.00 40.96     0.279 A 
HETATM   12  C7    D T2000       0.890   5.717   6.323  1.00 45.29     0.031 A 
HETATM   13  C16   D T2000      -0.223   3.887   7.572  1.00 41.24     0.085 A 
HETATM   14  C15   D T2000      -0.259   5.865   5.540  1.00 46.91     0.140 A 
HETATM   15  C5    D T2000      -1.379   5.016   5.782  1.00 46.93     0.031 A 
HETATM   16  F29   D T2000      -0.352   6.779   4.570  1.00 48.65    -0.204 F 
HETATM   17  C6    D T2000      -1.377   4.019   6.796  1.00 43.16     0.021 A 
HETATM   18  N24   D T2000      -0.005   3.017   8.581  1.00 38.68    -0.208 NA
HETATM   19  O27   D T2000       1.699   2.564   9.983  1.00 39.38    -0.265 OA
ENDBRANCH   5   8
BRANCH   6  20
HETATM   20  C22   D T2000       7.781   4.509  11.119  1.00 57.19     0.276 C 
HETATM   21  N25   D T2000       8.259   3.699  12.089  1.00 64.68    -0.232 NA
HETATM   22  O28   D T2000       8.576   5.374  10.734  1.00 55.46    -0.266 OA
BRANCH  21  23
HETATM   23  C37   D T2000       9.620   3.848  12.625  1.00 72.35     0.164 C 
BRANCH  23  24
HETATM   24  C38   D T2000      10.597   2.637  12.701  1.00 75.73     0.276 C 
BRANCH  24  25
HETATM   25  N4    D T2000      11.828   3.093  13.449  1.00 81.36     0.139 N 
BRANCH  25  26
HETATM   26  C39   D T2000      13.056   2.606  12.679  1.00 83.55     0.250 C 
HETATM   27  C42   D T2000      14.540   3.056  12.997  1.00 84.17     0.037 C 
ENDBRANCH  25  26
BRANCH  25  28
HETATM   28  C40   D T2000      11.771   2.674  14.955  1.00 83.04     0.250 C 
HETATM   29  C41   D T2000      11.566   3.704  16.109  1.00 82.57     0.037 C 
ENDBRANCH  25  28
ENDBRANCH  24  25
ENDBRANCH  23  24
ENDBRANCH  21  23
ENDBRANCH   6  20
TORSDOF 7
