REMARK  7 active torsions:
REMARK  status: ('A' for Active; 'I' for Inactive)
REMARK    1  A    between atoms: C22_10  and  C19_16 
REMARK       I    between atoms: C22_10  and  N25_19 
REMARK    2  A    between atoms: C12_12  and  C18_15 
REMARK    3  A    between atoms: N25_19  and  C37_23 
REMARK    4  A    between atoms: C37_23  and  C38_24 
REMARK    5  A    between atoms: C38_24  and  N4_25 
REMARK    6  A    between atoms: N4_25  and  C39_26 
REMARK    7  A    between atoms: N4_25  and  C40_27 
ROOT
HETATM    1  C4    D T2000      -1.494  -2.928  16.550  1.00 48.44     0.052 C 
HETATM    2  C13   D T2000       0.276  -0.138  14.640  1.00 48.75     0.002 A 
HETATM    3  C3    D T2000       1.321   0.885  14.058  1.00 43.40     0.033 C 
HETATM    4  C14   D T2000      -0.904  -1.777  15.720  1.00 49.83     0.064 A 
HETATM    5  C18   D T2000      -1.079  -0.140  14.249  1.00 45.93     0.077 A 
HETATM    6  C19   D T2000       0.403  -1.234  15.624  1.00 51.55     0.069 A 
HETATM    7  N23   D T2000      -1.717  -1.112  14.910  1.00 47.90    -0.250 NA
ENDROOT
BRANCH   5   8
HETATM    8  C12   D T2000      -1.681   0.779  13.261  1.00 43.39     0.024 C 
HETATM    9  C20   D T2000      -3.014   0.904  12.783  1.00 43.86     0.061 A 
HETATM   10  C17   D T2000      -3.566   1.850  11.727  1.00 43.90     0.025 A 
HETATM   11  C21   D T2000      -4.252   0.171  13.149  1.00 40.96     0.279 A 
HETATM   12  C7    D T2000      -2.925   2.871  10.923  1.00 45.29     0.031 A 
HETATM   13  C16   D T2000      -4.935   1.586  11.598  1.00 41.24     0.085 A 
HETATM   14  C15   D T2000      -3.706   3.592  10.014  1.00 46.91     0.140 A 
HETATM   15  C5    D T2000      -5.098   3.296   9.906  1.00 46.93     0.031 A 
HETATM   16  F29   D T2000      -3.199   4.555   9.239  1.00 48.65    -0.204 F 
HETATM   17  C6    D T2000      -5.728   2.294  10.692  1.00 43.16     0.021 A 
HETATM   18  N24   D T2000      -5.323   0.603  12.439  1.00 38.68    -0.208 NA
HETATM   19  O27   D T2000      -4.313  -0.700  13.974  1.00 39.38    -0.265 OA
ENDBRANCH   5   8
BRANCH   6  20
HETATM   20  C22   D T2000       1.607  -1.745  16.409  1.00 57.19     0.276 C 
HETATM   21  N25   D T2000       1.483  -2.784  17.264  1.00 64.68    -0.232 NA
HETATM   22  O28   D T2000       2.748  -1.278  16.330  1.00 55.46    -0.266 OA
BRANCH  21  23
HETATM   23  C37   D T2000       2.628  -3.305  18.025  1.00 72.35     0.164 C 
BRANCH  23  24
HETATM   24  C38   D T2000       2.985  -4.821  18.014  1.00 75.73     0.276 C 
BRANCH  24  25
HETATM   25  N4    D T2000       4.091  -5.034  19.021  1.00 81.36     0.139 N 
BRANCH  25  26
HETATM   26  C39   D T2000       5.155  -5.920  18.372  1.00 83.55     0.250 C 
HETATM   27  C42   D T2000       6.581  -6.202  19.001  1.00 84.17     0.037 C 
ENDBRANCH  25  26
BRANCH  25  28
HETATM   28  C40   D T2000       3.531  -5.549  20.388  1.00 83.04     0.250 C 
HETATM   29  C41   D T2000       3.507  -4.667  21.674  1.00 82.57     0.037 C 
ENDBRANCH  25  28
ENDBRANCH  24  25
ENDBRANCH  23  24
ENDBRANCH  21  23
ENDBRANCH   6  20
TORSDOF 7
