REMARK  7 active torsions:
REMARK  status: ('A' for Active; 'I' for Inactive)
REMARK    1  A    between atoms: C22_10  and  C19_16 
REMARK       I    between atoms: C22_10  and  N25_19 
REMARK    2  A    between atoms: C12_12  and  C18_15 
REMARK    3  A    between atoms: N25_19  and  C37_23 
REMARK    4  A    between atoms: C37_23  and  C38_24 
REMARK    5  A    between atoms: C38_24  and  N4_25 
REMARK    6  A    between atoms: N4_25  and  C39_26 
REMARK    7  A    between atoms: N4_25  and  C40_27 
ROOT
HETATM    1  C4    D T2000      -2.952  -4.005  16.378  1.00 48.44     0.052 C 
HETATM    2  C13   D T2000      -0.661  -1.328  14.912  1.00 48.75     0.002 A 
HETATM    3  C3    D T2000       0.567  -0.443  14.480  1.00 43.40     0.033 C 
HETATM    4  C14   D T2000      -2.144  -2.866  15.735  1.00 49.83     0.064 A 
HETATM    5  C18   D T2000      -1.987  -1.005  14.559  1.00 45.93     0.077 A 
HETATM    6  C19   D T2000      -0.756  -2.578  15.698  1.00 51.55     0.069 A 
HETATM    7  N23   D T2000      -2.807  -1.933  15.066  1.00 47.90    -0.250 NA
ENDROOT
BRANCH   5   8
HETATM    8  C12   D T2000      -2.392   0.164  13.752  1.00 43.39     0.024 C 
HETATM    9  C20   D T2000      -3.672   0.620  13.333  1.00 43.86     0.061 A 
HETATM   10  C17   D T2000      -4.022   1.818  12.462  1.00 43.90     0.025 A 
HETATM   11  C21   D T2000      -5.031   0.089  13.605  1.00 40.96     0.279 A 
HETATM   12  C7    D T2000      -3.189   2.816  11.822  1.00 45.29     0.031 A 
HETATM   13  C16   D T2000      -5.415   1.847  12.325  1.00 41.24     0.085 A 
HETATM   14  C15   D T2000      -3.809   3.815  11.064  1.00 46.91     0.140 A 
HETATM   15  C5    D T2000      -5.230   3.814  10.943  1.00 46.93     0.031 A 
HETATM   16  F29   D T2000      -3.118   4.778  10.446  1.00 48.65    -0.204 F 
HETATM   17  C6    D T2000      -6.049   2.835  11.568  1.00 43.16     0.021 A 
HETATM   18  N24   D T2000      -5.992   0.831  13.001  1.00 38.68    -0.208 NA
HETATM   19  O27   D T2000      -5.266  -0.880  14.275  1.00 39.38    -0.265 OA
ENDBRANCH   5   8
BRANCH   6  20
HETATM   20  C22   D T2000       0.320  -3.434  16.358  1.00 57.19     0.276 C 
HETATM   21  N25   D T2000      -0.010  -4.557  17.032  1.00 64.68    -0.232 NA
HETATM   22  O28   D T2000       1.531  -3.189  16.329  1.00 55.46    -0.266 OA
BRANCH  21  23
HETATM   23  C37   D T2000       1.007  -5.407  17.669  1.00 72.35     0.164 C 
BRANCH  23  24
HETATM   24  C38   D T2000       1.064  -6.941  17.399  1.00 75.73     0.276 C 
BRANCH  24  25
HETATM   25  N4    D T2000       2.100  -7.528  18.329  1.00 81.36     0.139 N 
BRANCH  25  26
HETATM   26  C39   D T2000       2.977  -8.481  17.518  1.00 83.55     0.250 C 
HETATM   27  C42   D T2000       4.316  -9.132  18.056  1.00 84.17     0.037 C 
ENDBRANCH  25  26
BRANCH  25  28
HETATM   28  C40   D T2000       1.440  -8.146  19.606  1.00 83.04     0.250 C 
HETATM   29  C41   D T2000       1.577  -7.501  21.020  1.00 82.57     0.037 C 
ENDBRANCH  25  28
ENDBRANCH  24  25
ENDBRANCH  23  24
ENDBRANCH  21  23
ENDBRANCH   6  20
TORSDOF 7
