REMARK  7 active torsions:
REMARK  status: ('A' for Active; 'I' for Inactive)
REMARK    1  A    between atoms: C22_10  and  C19_16 
REMARK       I    between atoms: C22_10  and  N25_19 
REMARK    2  A    between atoms: C12_12  and  C18_15 
REMARK    3  A    between atoms: N25_19  and  C37_23 
REMARK    4  A    between atoms: C37_23  and  C38_24 
REMARK    5  A    between atoms: C38_24  and  N4_25 
REMARK    6  A    between atoms: N4_25  and  C39_26 
REMARK    7  A    between atoms: N4_25  and  C40_27 
ROOT
HETATM    1  C4    D T2000      -6.253  -8.950 -13.006  1.00 48.44     0.052 C 
HETATM    2  C13   D T2000      -5.793  -5.240 -12.237  1.00 48.75     0.002 A 
HETATM    3  C3    D T2000      -5.979  -3.689 -12.046  1.00 43.40     0.033 C 
HETATM    4  C14   D T2000      -5.937  -7.487 -12.656  1.00 49.83     0.064 A 
HETATM    5  C18   D T2000      -4.584  -5.900 -11.933  1.00 45.93     0.077 A 
HETATM    6  C19   D T2000      -6.708  -6.297 -12.719  1.00 51.55     0.069 A 
HETATM    7  N23   D T2000      -4.725  -7.203 -12.199  1.00 47.90    -0.250 NA
ENDROOT
BRANCH   5   8
HETATM    8  C12   D T2000      -3.370  -5.248 -11.400  1.00 43.39     0.024 C 
HETATM    9  C20   D T2000      -2.092  -5.773 -11.064  1.00 43.86     0.061 A 
HETATM   10  C17   D T2000      -0.888  -5.052 -10.476  1.00 43.90     0.025 A 
HETATM   11  C21   D T2000      -1.544  -7.148 -11.175  1.00 40.96     0.279 A 
HETATM   12  C7    D T2000      -0.687  -3.668 -10.098  1.00 45.29     0.031 A 
HETATM   13  C16   D T2000       0.133  -5.997 -10.315  1.00 41.24     0.085 A 
HETATM   14  C15   D T2000       0.553  -3.294  -9.568  1.00 46.91     0.140 A 
HETATM   15  C5    D T2000       1.569  -4.283  -9.416  1.00 46.93     0.031 A 
HETATM   16  F29   D T2000       0.825  -2.038  -9.201  1.00 48.65    -0.204 F 
HETATM   17  C6    D T2000       1.375  -5.641  -9.785  1.00 43.16     0.021 A 
HETATM   18  N24   D T2000      -0.265  -7.219 -10.731  1.00 38.68    -0.208 NA
HETATM   19  O27   D T2000      -2.149  -8.093 -11.605  1.00 39.38    -0.265 OA
ENDBRANCH   5   8
BRANCH   6  20
HETATM   20  C22   D T2000      -8.155  -6.233 -13.195  1.00 57.19     0.276 C 
HETATM   21  N25   D T2000      -8.802  -7.351 -13.591  1.00 64.68    -0.232 NA
HETATM   22  O28   D T2000      -8.833  -5.201 -13.252  1.00 55.46    -0.266 OA
BRANCH  21  23
HETATM   23  C37   D T2000     -10.200  -7.320 -14.045  1.00 72.35     0.164 C 
BRANCH  23  24
HETATM   24  C38   D T2000     -11.269  -8.278 -13.439  1.00 75.73     0.276 C 
BRANCH  24  25
HETATM   25  N4    D T2000     -12.539  -8.106 -14.238  1.00 81.36     0.139 N 
BRANCH  25  26
HETATM   26  C39   D T2000     -13.703  -7.991 -13.255  1.00 83.55     0.250 C 
HETATM   27  C42   D T2000     -15.176  -7.578 -13.666  1.00 84.17     0.037 C 
ENDBRANCH  25  26
BRANCH  25  28
HETATM   28  C40   D T2000     -12.687  -9.220 -15.327  1.00 83.04     0.250 C 
HETATM   29  C41   D T2000     -12.538  -8.931 -16.853  1.00 82.57     0.037 C 
ENDBRANCH  25  28
ENDBRANCH  24  25
ENDBRANCH  23  24
ENDBRANCH  21  23
ENDBRANCH   6  20
TORSDOF 7
