REMARK  7 active torsions:
REMARK  status: ('A' for Active; 'I' for Inactive)
REMARK    1  A    between atoms: C22_10  and  C19_16 
REMARK       I    between atoms: C22_10  and  N25_19 
REMARK    2  A    between atoms: C12_12  and  C18_15 
REMARK    3  A    between atoms: N25_19  and  C37_23 
REMARK    4  A    between atoms: C37_23  and  C38_24 
REMARK    5  A    between atoms: C38_24  and  N4_25 
REMARK    6  A    between atoms: N4_25  and  C39_26 
REMARK    7  A    between atoms: N4_25  and  C40_27 
ROOT
HETATM    1  C4    D T2000      11.064   7.058  -5.498  1.00 48.44     0.052 C 
HETATM    2  C13   D T2000      11.097   3.448  -4.261  1.00 48.75     0.002 A 
HETATM    3  C3    D T2000      11.421   2.087  -3.539  1.00 43.40     0.033 C 
HETATM    4  C14   D T2000      10.967   5.582  -5.082  1.00 49.83     0.064 A 
HETATM    5  C18   D T2000      10.036   3.582  -5.180  1.00 45.93     0.077 A 
HETATM    6  C19   D T2000      11.725   4.785  -4.186  1.00 51.55     0.069 A 
HETATM    7  N23   D T2000      10.009   4.843  -5.627  1.00 47.90    -0.250 NA
ENDROOT
BRANCH   5   8
HETATM    8  C12   D T2000       9.106   2.502  -5.570  1.00 43.39     0.024 C 
HETATM    9  C20   D T2000       8.014   2.485  -6.481  1.00 43.86     0.061 A 
HETATM   10  C17   D T2000       7.063   1.345  -6.810  1.00 43.90     0.025 A 
HETATM   11  C21   D T2000       7.472   3.542  -7.371  1.00 40.96     0.279 A 
HETATM   12  C7    D T2000       6.986  -0.015  -6.316  1.00 45.29     0.031 A 
HETATM   13  C16   D T2000       6.150   1.818  -7.761  1.00 41.24     0.085 A 
HETATM   14  C15   D T2000       5.978  -0.849  -6.811  1.00 46.91     0.140 A 
HETATM   15  C5    D T2000       5.063  -0.334  -7.777  1.00 46.93     0.031 A 
HETATM   16  F29   D T2000       5.839  -2.118  -6.416  1.00 48.65    -0.204 F 
HETATM   17  C6    D T2000       5.135   1.000  -8.262  1.00 43.16     0.021 A 
HETATM   18  N24   D T2000       6.403   3.105  -8.081  1.00 38.68    -0.208 NA
HETATM   19  O27   D T2000       7.917   4.655  -7.462  1.00 39.38    -0.265 OA
ENDBRANCH   5   8
BRANCH   6  20
HETATM   20  C22   D T2000      12.909   5.294  -3.372  1.00 57.19     0.276 C 
HETATM   21  N25   D T2000      13.307   6.582  -3.464  1.00 64.68    -0.232 NA
HETATM   22  O28   D T2000      13.574   4.607  -2.589  1.00 55.46    -0.266 OA
BRANCH  21  23
HETATM   23  C37   D T2000      14.439   7.103  -2.683  1.00 72.35     0.164 C 
BRANCH  23  24
HETATM   24  C38   D T2000      14.299   8.390  -1.817  1.00 75.73     0.276 C 
BRANCH  24  25
HETATM   25  N4    D T2000      15.674   8.737  -1.294  1.00 81.36     0.139 N 
BRANCH  25  26
HETATM   26  C39   D T2000      15.544   9.066   0.194  1.00 83.55     0.250 C 
HETATM   27  C42   D T2000      16.775   9.263   1.171  1.00 84.17     0.037 C 
ENDBRANCH  25  26
BRANCH  25  28
HETATM   28  C40   D T2000      16.359   9.839  -2.168  1.00 83.04     0.250 C 
HETATM   29  C41   D T2000      17.574   9.541  -3.099  1.00 82.57     0.037 C 
ENDBRANCH  25  28
ENDBRANCH  24  25
ENDBRANCH  23  24
ENDBRANCH  21  23
ENDBRANCH   6  20
TORSDOF 7
