REMARK  7 active torsions:
REMARK  status: ('A' for Active; 'I' for Inactive)
REMARK    1  A    between atoms: C22_10  and  C19_16 
REMARK       I    between atoms: C22_10  and  N25_19 
REMARK    2  A    between atoms: C12_12  and  C18_15 
REMARK    3  A    between atoms: N25_19  and  C37_23 
REMARK    4  A    between atoms: C37_23  and  C38_24 
REMARK    5  A    between atoms: C38_24  and  N4_25 
REMARK    6  A    between atoms: N4_25  and  C39_26 
REMARK    7  A    between atoms: N4_25  and  C40_27 
ROOT
HETATM    1  C4    D T2000      -7.893  -5.254 -14.378  1.00 48.44     0.052 C 
HETATM    2  C13   D T2000      -6.344  -2.071 -12.952  1.00 48.75     0.002 A 
HETATM    3  C3    D T2000      -6.047  -0.597 -12.488  1.00 43.40     0.033 C 
HETATM    4  C14   D T2000      -7.158  -4.049 -13.769  1.00 49.83     0.064 A 
HETATM    5  C18   D T2000      -5.425  -3.123 -12.763  1.00 45.93     0.077 A 
HETATM    6  C19   D T2000      -7.511  -2.683 -13.623  1.00 51.55     0.069 A 
HETATM    7  N23   D T2000      -5.950  -4.249 -13.259  1.00 47.90    -0.250 NA
ENDROOT
BRANCH   5   8
HETATM    8  C12   D T2000      -4.105  -2.993 -12.113  1.00 43.39     0.024 C 
HETATM    9  C20   D T2000      -3.079  -3.948 -11.867  1.00 43.86     0.061 A 
HETATM   10  C17   D T2000      -1.750  -3.759 -11.151  1.00 43.90     0.025 A 
HETATM   11  C21   D T2000      -2.984  -5.386 -12.219  1.00 40.96     0.279 A 
HETATM   12  C7    D T2000      -1.151  -2.595 -10.529  1.00 45.29     0.031 A 
HETATM   13  C16   D T2000      -1.090  -4.994 -11.155  1.00 41.24     0.085 A 
HETATM   14  C15   D T2000       0.107  -2.732  -9.932  1.00 46.91     0.140 A 
HETATM   15  C5    D T2000       0.750  -4.005  -9.952  1.00 46.93     0.031 A 
HETATM   16  F29   D T2000       0.735  -1.710  -9.343  1.00 48.65    -0.204 F 
HETATM   17  C6    D T2000       0.164  -5.148 -10.559  1.00 43.16     0.021 A 
HETATM   18  N24   D T2000      -1.823  -5.936 -11.785  1.00 38.68    -0.208 NA
HETATM   19  O27   D T2000      -3.826  -6.002 -12.816  1.00 39.38    -0.265 OA
ENDBRANCH   5   8
BRANCH   6  20
HETATM   20  C22   D T2000      -8.831  -2.081 -14.091  1.00 57.19     0.276 C 
HETATM   21  N25   D T2000      -9.769  -2.850 -14.686  1.00 64.68    -0.232 NA
HETATM   22  O28   D T2000      -9.146  -0.892 -13.967  1.00 55.46    -0.266 OA
BRANCH  21  23
HETATM   23  C37   D T2000     -11.055  -2.299 -15.137  1.00 72.35     0.164 C 
BRANCH  23  24
HETATM   24  C38   D T2000     -12.407  -2.952 -14.720  1.00 75.73     0.276 C 
BRANCH  24  25
HETATM   25  N4    D T2000     -13.505  -2.251 -15.485  1.00 81.36     0.139 N 
BRANCH  25  26
HETATM   26  C39   D T2000     -14.635  -1.936 -14.505  1.00 83.55     0.250 C 
HETATM   27  C42   D T2000     -15.875  -1.011 -14.846  1.00 84.17     0.037 C 
ENDBRANCH  25  26
BRANCH  25  28
HETATM   28  C40   D T2000     -13.925  -3.060 -16.756  1.00 83.04     0.250 C 
HETATM   29  C41   D T2000     -13.595  -2.583 -18.205  1.00 82.57     0.037 C 
ENDBRANCH  25  28
ENDBRANCH  24  25
ENDBRANCH  23  24
ENDBRANCH  21  23
ENDBRANCH   6  20
TORSDOF 7
