REMARK  7 active torsions:
REMARK  status: ('A' for Active; 'I' for Inactive)
REMARK    1  A    between atoms: C22_10  and  C19_16 
REMARK       I    between atoms: C22_10  and  N25_19 
REMARK    2  A    between atoms: C12_12  and  C18_15 
REMARK    3  A    between atoms: N25_19  and  C37_23 
REMARK    4  A    between atoms: C37_23  and  C38_24 
REMARK    5  A    between atoms: C38_24  and  N4_25 
REMARK    6  A    between atoms: N4_25  and  C39_26 
REMARK    7  A    between atoms: N4_25  and  C40_27 
ROOT
HETATM    1  C4    D T2000      -3.081  -5.134  16.203  1.00 48.44     0.052 C 
HETATM    2  C13   D T2000      -0.651  -2.480  14.929  1.00 48.75     0.002 A 
HETATM    3  C3    D T2000       0.621  -1.628  14.567  1.00 43.40     0.033 C 
HETATM    4  C14   D T2000      -2.214  -3.996  15.640  1.00 49.83     0.064 A 
HETATM    5  C18   D T2000      -1.957  -2.076  14.583  1.00 45.93     0.077 A 
HETATM    6  C19   D T2000      -0.814  -3.770  15.636  1.00 51.55     0.069 A 
HETATM    7  N23   D T2000      -2.825  -2.994  15.024  1.00 47.90    -0.250 NA
ENDROOT
BRANCH   5   8
HETATM    8  C12   D T2000      -2.297  -0.842  13.846  1.00 43.39     0.024 C 
HETATM    9  C20   D T2000      -3.550  -0.302  13.443  1.00 43.86     0.061 A 
HETATM   10  C17   D T2000      -3.834   0.961  12.644  1.00 43.90     0.025 A 
HETATM   11  C21   D T2000      -4.936  -0.787  13.666  1.00 40.96     0.279 A 
HETATM   12  C7    D T2000      -2.949   1.957  12.076  1.00 45.29     0.031 A 
HETATM   13  C16   D T2000      -5.223   1.063  12.495  1.00 41.24     0.085 A 
HETATM   14  C15   D T2000      -3.513   3.028  11.374  1.00 46.91     0.140 A 
HETATM   15  C5    D T2000      -4.931   3.100  11.239  1.00 46.93     0.031 A 
HETATM   16  F29   D T2000      -2.771   3.995  10.825  1.00 48.65    -0.204 F 
HETATM   17  C6    D T2000      -5.801   2.123  11.793  1.00 43.16     0.021 A 
HETATM   18  N24   D T2000      -5.854   0.034  13.100  1.00 38.68    -0.208 NA
HETATM   19  O27   D T2000      -5.223  -1.783  14.273  1.00 39.38    -0.265 OA
ENDBRANCH   5   8
BRANCH   6  20
HETATM   20  C22   D T2000       0.214  -4.713  16.252  1.00 57.19     0.276 C 
HETATM   21  N25   D T2000      -0.175  -5.860  16.853  1.00 64.68    -0.232 NA
HETATM   22  O28   D T2000       1.435  -4.523  16.252  1.00 55.46    -0.266 OA
BRANCH  21  23
HETATM   23  C37   D T2000       0.794  -6.793  17.446  1.00 72.35     0.164 C 
BRANCH  23  24
HETATM   24  C38   D T2000       0.785  -8.308  17.082  1.00 75.73     0.276 C 
BRANCH  24  25
HETATM   25  N4    D T2000       1.781  -8.998  17.986  1.00 81.36     0.139 N 
BRANCH  25  26
HETATM   26  C39   D T2000       2.625  -9.938  17.126  1.00 83.55     0.250 C 
HETATM   27  C42   D T2000       3.926 -10.682  17.637  1.00 84.17     0.037 C 
ENDBRANCH  25  26
BRANCH  25  28
HETATM   28  C40   D T2000       1.077  -9.662  19.214  1.00 83.04     0.250 C 
HETATM   29  C41   D T2000       1.223  -9.113  20.667  1.00 82.57     0.037 C 
ENDBRANCH  25  28
ENDBRANCH  24  25
ENDBRANCH  23  24
ENDBRANCH  21  23
ENDBRANCH   6  20
TORSDOF 7
