REMARK  2 active torsions:
REMARK  status: ('A' for Active; 'I' for Inactive)
REMARK    1  A    between atoms: C5_4  and  O7_13 
REMARK    2  A    between atoms: C8_10  and  O7_13 
ROOT
HETATM    1  O7    D T1258       6.496   2.719  -6.807  1.00 25.09    -0.304 OA
ENDROOT
BRANCH   1   2
HETATM    2  C5    D T1258       6.345   2.471  -8.130  1.00 24.92     0.125 A 
HETATM    3  C6    D T1258       6.205   1.107  -8.599  1.00 20.38     0.154 A 
HETATM    4  C1    D T1258       6.042   0.860  -9.927  1.00 24.39     0.041 A 
HETATM    5  O17   D T1258       6.261   0.087  -7.726  1.00 23.90    -0.188 OA
HETATM    6  C2    D T1258       6.014   1.928 -10.845  1.00 24.16     0.060 A 
HETATM    7  C3    D T1258       6.144   3.258 -10.390  1.00 22.08     0.014 A 
HETATM    8 CL14   D T1258       5.798   1.601 -12.570  1.00 26.89    -0.082 Cl
HETATM    9  C4    D T1258       6.255   3.520  -9.028  1.00 21.98     0.028 A 
ENDBRANCH   1   2
BRANCH   1  10
HETATM   10  C8    D T1258       7.729   2.753  -6.263  1.00 26.64     0.111 A 
HETATM   11  C9    D T1258       7.893   3.069  -4.858  1.00 26.93     0.081 A 
HETATM   12  C10   D T1258       9.138   3.156  -4.326  1.00 30.17     0.025 A 
HETATM   13 CL16   D T1258       6.481   3.406  -3.861  1.00 51.29    -0.080 Cl
HETATM   14  C11   D T1258      10.252   3.035  -5.143  1.00 28.51     0.059 A 
HETATM   15  C12   D T1258      10.097   2.715  -6.518  1.00 27.32     0.013 A 
HETATM   16 CL15   D T1258      11.863   3.205  -4.457  1.00 39.13    -0.082 Cl
HETATM   17  C13   D T1258       8.838   2.577  -7.058  1.00 28.27     0.026 A 
ENDBRANCH   1  10
TORSDOF 2
