REMARK  2 active torsions:
REMARK  status: ('A' for Active; 'I' for Inactive)
REMARK    1  A    between atoms: C5_4  and  O7_13 
REMARK    2  A    between atoms: C8_10  and  O7_13 
ROOT
HETATM    1  O7    D T1258      -1.146  30.541   9.467  1.00 25.09    -0.304 OA
ENDROOT
BRANCH   1   2
HETATM    2  C5    D T1258      -0.764  30.212   8.210  1.00 24.92     0.125 A 
HETATM    3  C6    D T1258      -0.594  31.249   7.211  1.00 20.38     0.154 A 
HETATM    4  C1    D T1258      -0.199  30.919   5.952  1.00 24.39     0.041 A 
HETATM    5  O17   D T1258      -0.851  32.530   7.522  1.00 23.90    -0.188 OA
HETATM    6  C2    D T1258       0.041  29.571   5.618  1.00 24.16     0.060 A 
HETATM    7  C3    D T1258      -0.118  28.560   6.591  1.00 22.08     0.014 A 
HETATM    8 CL14   D T1258       0.558  29.148   3.980  1.00 26.89    -0.082 Cl
HETATM    9  C4    D T1258      -0.468  28.898   7.895  1.00 21.98     0.028 A 
ENDBRANCH   1   2
BRANCH   1  10
HETATM   10  C8    D T1258      -2.456  30.600   9.780  1.00 26.64     0.111 A 
HETATM   11  C9    D T1258      -2.864  30.901  11.138  1.00 26.93     0.081 A 
HETATM   12  C10   D T1258      -4.181  30.906  11.463  1.00 30.17     0.025 A 
HETATM   13 CL16   D T1258      -1.648  31.193  12.378  1.00 51.29    -0.080 Cl
HETATM   14  C11   D T1258      -5.129  30.533  10.522  1.00 28.51     0.059 A 
HETATM   15  C12   D T1258      -4.736  30.247   9.187  1.00 27.32     0.013 A 
HETATM   16 CL15   D T1258      -6.831  30.486  10.965  1.00 39.13    -0.082 Cl
HETATM   17  C13   D T1258      -3.405  30.286   8.835  1.00 28.27     0.026 A 
ENDBRANCH   1  10
TORSDOF 2
