REMARK  2 active torsions:
REMARK  status: ('A' for Active; 'I' for Inactive)
REMARK    1  A    between atoms: C5_4  and  O7_13 
REMARK    2  A    between atoms: C8_10  and  O7_13 
ROOT
HETATM    1  O7    D T1258       8.043   2.277  -5.905  1.00 25.09    -0.304 OA
ENDROOT
BRANCH   1   2
HETATM    2  C5    D T1258       8.011   2.162  -7.254  1.00 24.92     0.125 A 
HETATM    3  C6    D T1258       7.701   0.883  -7.863  1.00 20.38     0.154 A 
HETATM    4  C1    D T1258       7.658   0.771  -9.218  1.00 24.39     0.041 A 
HETATM    5  O17   D T1258       7.482  -0.194  -7.091  1.00 23.90    -0.188 OA
HETATM    6  C2    D T1258       7.918   1.894 -10.028  1.00 24.16     0.060 A 
HETATM    7  C3    D T1258       8.214   3.142  -9.437  1.00 22.08     0.014 A 
HETATM    8 CL14   D T1258       7.857   1.743 -11.790  1.00 26.89    -0.082 Cl
HETATM    9  C4    D T1258       8.205   3.275  -8.051  1.00 21.98     0.028 A 
ENDBRANCH   1   2
BRANCH   1  10
HETATM   10  C8    D T1258       9.191   2.050  -5.235  1.00 26.64     0.111 A 
HETATM   11  C9    D T1258       9.238   2.225  -3.797  1.00 26.93     0.081 A 
HETATM   12  C10   D T1258      10.407   2.049  -3.132  1.00 30.17     0.025 A 
HETATM   13 CL16   D T1258       7.794   2.729  -2.924  1.00 51.29    -0.080 Cl
HETATM   14  C11   D T1258      11.574   1.795  -3.837  1.00 28.51     0.059 A 
HETATM   15  C12   D T1258      11.532   1.613  -5.246  1.00 27.32     0.013 A 
HETATM   16 CL15   D T1258      13.098   1.625  -2.975  1.00 39.13    -0.082 Cl
HETATM   17  C13   D T1258      10.341   1.742  -5.924  1.00 28.27     0.026 A 
ENDBRANCH   1  10
TORSDOF 2
