REMARK  2 active torsions:
REMARK  status: ('A' for Active; 'I' for Inactive)
REMARK    1  A    between atoms: C5_4  and  O7_13 
REMARK    2  A    between atoms: C8_10  and  O7_13 
ROOT
HETATM    1  O7    D T1258       7.770   2.043  -6.214  1.00 25.09    -0.304 OA
ENDROOT
BRANCH   1   2
HETATM    2  C5    D T1258       7.732   1.815  -7.548  1.00 24.92     0.125 A 
HETATM    3  C6    D T1258       7.482   0.476  -8.046  1.00 20.38     0.154 A 
HETATM    4  C1    D T1258       7.432   0.250  -9.386  1.00 24.39     0.041 A 
HETATM    5  O17   D T1258       7.325  -0.542  -7.184  1.00 23.90    -0.188 OA
HETATM    6  C2    D T1258       7.627   1.313 -10.289  1.00 24.16     0.060 A 
HETATM    7  C3    D T1258       7.865   2.619  -9.807  1.00 22.08     0.014 A 
HETATM    8 CL14   D T1258       7.557   1.014 -12.031  1.00 26.89    -0.082 Cl
HETATM    9  C4    D T1258       7.862   2.866  -8.437  1.00 21.98     0.028 A 
ENDBRANCH   1   2
BRANCH   1  10
HETATM   10  C8    D T1258       8.935   1.930  -5.543  1.00 26.64     0.111 A 
HETATM   11  C9    D T1258       8.986   2.226  -4.125  1.00 26.93     0.081 A 
HETATM   12  C10   D T1258      10.169   2.165  -3.464  1.00 30.17     0.025 A 
HETATM   13 CL16   D T1258       7.527   2.729  -3.277  1.00 51.29    -0.080 Cl
HETATM   14  C11   D T1258      11.341   1.911  -4.161  1.00 28.51     0.059 A 
HETATM   15  C12   D T1258      11.295   1.611  -5.549  1.00 27.32     0.013 A 
HETATM   16 CL15   D T1258      12.880   1.890  -3.309  1.00 39.13    -0.082 Cl
HETATM   17  C13   D T1258      10.092   1.624  -6.220  1.00 28.27     0.026 A 
ENDBRANCH   1  10
TORSDOF 2
