REMARK  2 active torsions:
REMARK  status: ('A' for Active; 'I' for Inactive)
REMARK    1  A    between atoms: C5_4  and  O7_13 
REMARK    2  A    between atoms: C8_10  and  O7_13 
ROOT
HETATM    1  O7    D T1257       6.230   2.708  -6.639  1.00 58.14    -0.304 OA
ENDROOT
BRANCH   1   2
HETATM    2  C5    D T1257       6.133   2.499  -7.975  1.00 54.76     0.125 A 
HETATM    3  C6    D T1257       6.387   1.169  -8.531  1.00 52.65     0.154 A 
HETATM    4  C1    D T1257       6.297   0.969  -9.875  1.00 49.52     0.041 A 
HETATM    5  O17   D T1257       6.743   0.136  -7.705  1.00 50.16    -0.188 OA
HETATM    6  C2    D T1257       5.930   2.024 -10.714  1.00 49.27     0.060 A 
HETATM    7  C3    D T1257       5.669   3.301 -10.173  1.00 51.12     0.014 A 
HETATM    8 CL14   D T1257       5.788   1.760 -12.457  1.00 51.35    -0.082 Cl
HETATM    9  C4    D T1257       5.775   3.517  -8.797  1.00 53.80     0.028 A 
ENDBRANCH   1   2
BRANCH   1  10
HETATM   10  C8    D T1257       7.453   2.774  -6.047  1.00 62.04     0.111 A 
HETATM   11  C9    D T1257       7.571   3.226  -4.663  1.00 64.62     0.081 A 
HETATM   12  C10   D T1257       8.789   3.269  -4.067  1.00 65.99     0.025 A 
HETATM   13 CL16   D T1257       6.120   3.740  -3.765  1.00 72.13    -0.080 Cl
HETATM   14  C11   D T1257       9.927   2.881  -4.775  1.00 67.33     0.059 A 
HETATM   15  C12   D T1257       9.813   2.438  -6.121  1.00 65.29     0.013 A 
HETATM   16 CL15   D T1257      11.525   2.941  -3.991  1.00 72.08    -0.082 Cl
HETATM   17  C13   D T1257       8.567   2.389  -6.735  1.00 62.19     0.026 A 
ENDBRANCH   1  10
TORSDOF 2
