REMARK  2 active torsions:
REMARK  status: ('A' for Active; 'I' for Inactive)
REMARK    1  A    between atoms: C5_4  and  O7_13 
REMARK    2  A    between atoms: C8_10  and  O7_13 
ROOT
HETATM    1  O7    D T1257       7.756   2.332  -5.765  1.00 58.14    -0.304 OA
ENDROOT
BRANCH   1   2
HETATM    2  C5    D T1257       7.786   2.244  -7.118  1.00 54.76     0.125 A 
HETATM    3  C6    D T1257       7.882   0.935  -7.768  1.00 52.65     0.154 A 
HETATM    4  C1    D T1257       7.921   0.855  -9.126  1.00 49.52     0.041 A 
HETATM    5  O17   D T1257       7.961  -0.203  -7.009  1.00 50.16    -0.188 OA
HETATM    6  C2    D T1257       7.837   2.018  -9.896  1.00 49.27     0.060 A 
HETATM    7  C3    D T1257       7.728   3.277  -9.267  1.00 51.12     0.014 A 
HETATM    8 CL14   D T1257       7.863   1.914 -11.661  1.00 51.35    -0.082 Cl
HETATM    9  C4    D T1257       7.702   3.368  -7.873  1.00 53.80     0.028 A 
ENDBRANCH   1   2
BRANCH   1  10
HETATM   10  C8    D T1257       8.893   2.138  -5.045  1.00 62.04     0.111 A 
HETATM   11  C9    D T1257       8.917   2.458  -3.620  1.00 64.62     0.081 A 
HETATM   12  C10   D T1257      10.046   2.242  -2.897  1.00 65.99     0.025 A 
HETATM   13 CL16   D T1257       7.474   3.149  -2.835  1.00 72.13    -0.080 Cl
HETATM   14  C11   D T1257      11.180   1.715  -3.515  1.00 67.33     0.059 A 
HETATM   15  C12   D T1257      11.156   1.401  -4.901  1.00 65.29     0.013 A 
HETATM   16 CL15   D T1257      12.660   1.436  -2.565  1.00 72.08    -0.082 Cl
HETATM   17  C13   D T1257      10.002   1.617  -5.645  1.00 62.19     0.026 A 
ENDBRANCH   1  10
TORSDOF 2
