REMARK  5 active torsions:
REMARK  status: ('A' for Active; 'I' for Inactive)
REMARK    1  A    between atoms: C17_7  and  C21_10 
REMARK    2  A    between atoms: C21_10  and  O27_12 
REMARK    3  A    between atoms: O27_12  and  C15_13 
REMARK    4  A    between atoms: C14_19  and  C16_20 
REMARK    5  A    between atoms: N26_23  and  C20_25 
ROOT
HETATM    1  C15   D T9000       4.122  11.623   2.864  1.00 25.51     0.125 A 
HETATM    2  C4    D T9000       5.553  11.708   2.974  1.00 26.27     0.029 A 
HETATM    3  C19   D T9000       3.513  10.487   3.494  1.00 24.04     0.173 A 
HETATM    4  N22   D T9000       2.114  10.341   3.430  1.00 22.39    -0.078 NA
HETATM    5  N23   D T9000       4.200   9.524   4.165  1.00 23.93    -0.228 NA
HETATM    6  C5    D T9000       5.561   9.632   4.252  1.00 26.12     0.100 A 
HETATM    7  C14   D T9000       6.302  10.708   3.671  1.00 28.08     0.024 A 
ENDROOT
BRANCH   1   8
HETATM    8  O27   D T9000       3.301  12.564   2.220  1.00 26.96    -0.326 OA
BRANCH   8   9
HETATM    9  C21   D T9000       3.744  13.622   1.294  1.00 29.02     0.145 C 
HETATM   10  C1    D T9000       2.485  14.441   0.975  1.00 31.25     0.038 C 
BRANCH   9  11
HETATM   11  C17   D T9000       4.418  13.098  -0.031  1.00 31.05     0.029 A 
HETATM   12  C13   D T9000       5.806  13.442  -0.331  1.00 30.66     0.057 A 
HETATM   13 CL     D T9000       6.804  14.419   0.705  1.00 31.95    -0.083 Cl
HETATM   14  C3    D T9000       6.419  12.974  -1.529  1.00 30.41     0.013 A 
HETATM   15  C2    D T9000       5.705  12.171  -2.453  1.00 31.69     0.031 A 
HETATM   16  C12   D T9000       4.355  11.815  -2.203  1.00 33.21     0.150 A 
HETATM   17  F     D T9000       3.719  11.057  -3.106  1.00 33.89    -0.203 F 
HETATM   18  C18   D T9000       3.692  12.262  -1.003  1.00 33.60     0.084 A 
HETATM   19 CL2    D T9000       2.020  11.768  -0.782  1.00 45.49    -0.080 Cl
ENDBRANCH   9  11
ENDBRANCH   8   9
ENDBRANCH   1   8
BRANCH   7  20
HETATM   20  C16   D T9000       7.812  10.820   3.770  1.00 30.74     0.041 A 
HETATM   21  C6    D T9000       8.678  11.702   2.985  1.00 33.28     0.122 A 
HETATM   22  N24   D T9000       9.894  11.521   3.340  1.00 35.40    -0.168 NA
HETATM   23  N26   D T9000       9.955  10.632   4.263  1.00 35.93    -0.252 N 
HETATM   24  C7    D T9000       8.681  10.124   4.609  1.00 33.34     0.097 A 
BRANCH  23  25
HETATM   25  C20   D T9000      11.253  10.232   4.856  1.00 41.25     0.110 C 
HETATM   26  C8    D T9000      11.551   8.745   4.561  1.00 43.15     0.063 C 
HETATM   27  C10   D T9000      12.912   8.359   5.187  1.00 45.06     0.292 C 
HETATM   28  N25   D T9000      12.975   8.665   6.647  1.00 46.53     0.339 N 
HETATM   29  C11   D T9000      12.640  10.086   6.957  1.00 45.16     0.292 C 
HETATM   30  C9    D T9000      11.272  10.510   6.375  1.00 43.46     0.063 C 
ENDBRANCH  23  25
ENDBRANCH   7  20
TORSDOF 5
