REMARK  5 active torsions:
REMARK  status: ('A' for Active; 'I' for Inactive)
REMARK    1  A    between atoms: C17_7  and  C21_10 
REMARK    2  A    between atoms: C21_10  and  O27_12 
REMARK    3  A    between atoms: O27_12  and  C15_13 
REMARK    4  A    between atoms: C14_19  and  C16_20 
REMARK    5  A    between atoms: N26_23  and  C20_25 
ROOT
HETATM    1  C15   D T9000       8.068   2.180  -7.517  1.00 25.51     0.125 A 
HETATM    2  C4    D T9000       9.085   2.759  -6.681  1.00 26.27     0.029 A 
HETATM    3  C19   D T9000       7.187   3.111  -8.163  1.00 24.04     0.173 A 
HETATM    4  N22   D T9000       6.168   2.615  -9.000  1.00 22.39    -0.078 NA
HETATM    5  N23   D T9000       7.265   4.461  -8.026  1.00 23.93    -0.228 NA
HETATM    6  C5    D T9000       8.244   4.982  -7.224  1.00 26.12     0.100 A 
HETATM    7  C14   D T9000       9.190   4.176  -6.517  1.00 28.08     0.024 A 
ENDROOT
BRANCH   1   8
HETATM    8  O27   D T9000       7.900   0.806  -7.756  1.00 26.96    -0.326 OA
BRANCH   8   9
HETATM    9  C21   D T9000       8.505  -0.295  -6.986  1.00 29.02     0.145 C 
HETATM   10  C1    D T9000       8.106  -1.581  -7.727  1.00 31.25     0.038 C 
BRANCH   9  11
HETATM   11  C17   D T9000       8.063  -0.364  -5.475  1.00 31.05     0.029 A 
HETATM   12  C13   D T9000       9.058  -0.217  -4.415  1.00 30.66     0.057 A 
HETATM   13 CL     D T9000      10.752   0.039  -4.710  1.00 31.95    -0.083 Cl
HETATM   14  C3    D T9000       8.665  -0.282  -3.047  1.00 30.41     0.013 A 
HETATM   15  C2    D T9000       7.311  -0.489  -2.682  1.00 31.69     0.031 A 
HETATM   16  C12   D T9000       6.312  -0.639  -3.678  1.00 33.21     0.150 A 
HETATM   17  F     D T9000       5.047  -0.836  -3.286  1.00 33.89    -0.203 F 
HETATM   18  C18   D T9000       6.661  -0.578  -5.076  1.00 33.60     0.084 A 
HETATM   19 CL2    D T9000       5.355  -0.773  -6.235  1.00 45.49    -0.080 Cl
ENDBRANCH   9  11
ENDBRANCH   8   9
ENDBRANCH   1   8
BRANCH   7  20
HETATM   20  C16   D T9000      10.271   4.760  -5.626  1.00 30.74     0.041 A 
HETATM   21  C6    D T9000      11.089   4.037  -4.651  1.00 33.28     0.122 A 
HETATM   22  N24   D T9000      11.892   4.855  -4.086  1.00 35.40    -0.168 NA
HETATM   23  N26   D T9000      11.719   6.037  -4.556  1.00 35.93    -0.252 N 
HETATM   24  C7    D T9000      10.708   6.081  -5.545  1.00 33.34     0.097 A 
BRANCH  23  25
HETATM   25  C20   D T9000      12.527   7.180  -4.071  1.00 41.25     0.110 C 
HETATM   26  C8    D T9000      11.627   8.229  -3.380  1.00 43.15     0.063 C 
HETATM   27  C10   D T9000      12.497   9.406  -2.880  1.00 45.06     0.292 C 
HETATM   28  N25   D T9000      13.323  10.006  -3.970  1.00 46.53     0.339 N 
HETATM   29  C11   D T9000      14.162   9.000  -4.683  1.00 45.16     0.292 C 
HETATM   30  C9    D T9000      13.330   7.816  -5.227  1.00 43.46     0.063 C 
ENDBRANCH  23  25
ENDBRANCH   7  20
TORSDOF 5
