REMARK  5 active torsions:
REMARK  status: ('A' for Active; 'I' for Inactive)
REMARK    1  A    between atoms: C17_7  and  C21_10 
REMARK    2  A    between atoms: C21_10  and  O27_12 
REMARK    3  A    between atoms: O27_12  and  C15_13 
REMARK    4  A    between atoms: C14_19  and  C16_20 
REMARK    5  A    between atoms: N26_23  and  C20_25 
ROOT
HETATM    1  C15   D T9000      -9.485   2.289  -6.765  1.00 25.51     0.125 A 
HETATM    2  C4    D T9000     -10.698   1.572  -7.050  1.00 26.27     0.029 A 
HETATM    3  C19   D T9000      -8.265   1.608  -7.097  1.00 24.04     0.173 A 
HETATM    4  N22   D T9000      -7.037   2.251  -6.848  1.00 22.39    -0.078 NA
HETATM    5  N23   D T9000      -8.207   0.365  -7.646  1.00 23.93    -0.228 NA
HETATM    6  C5    D T9000      -9.379  -0.291  -7.906  1.00 26.12     0.100 A 
HETATM    7  C14   D T9000     -10.667   0.263  -7.626  1.00 28.08     0.024 A 
ENDROOT
BRANCH   1   8
HETATM    8  O27   D T9000      -9.415   3.582  -6.222  1.00 26.96    -0.326 OA
BRANCH   8   9
HETATM    9  C21   D T9000     -10.513   4.316  -5.569  1.00 29.02     0.145 C 
HETATM   10  C1    D T9000      -9.951   5.714  -5.270  1.00 31.25     0.038 C 
BRANCH   9  11
HETATM   11  C17   D T9000     -11.063   3.645  -4.253  1.00 31.05     0.029 A 
HETATM   12  C13   D T9000     -12.457   3.209  -4.183  1.00 30.66     0.057 A 
HETATM   13 CL     D T9000     -13.589   3.381  -5.490  1.00 31.95    -0.083 Cl
HETATM   14  C3    D T9000     -12.960   2.605  -2.994  1.00 30.41     0.013 A 
HETATM   15  C2    D T9000     -12.132   2.413  -1.861  1.00 31.69     0.031 A 
HETATM   16  C12   D T9000     -10.774   2.823  -1.884  1.00 33.21     0.150 A 
HETATM   17  F     D T9000     -10.030   2.624  -0.789  1.00 33.89    -0.203 F 
HETATM   18  C18   D T9000     -10.218   3.437  -3.065  1.00 33.60     0.084 A 
HETATM   19 CL2    D T9000      -8.526   3.909  -2.999  1.00 45.49    -0.080 Cl
ENDBRANCH   9  11
ENDBRANCH   8   9
ENDBRANCH   1   8
BRANCH   7  20
HETATM   20  C16   D T9000     -11.963  -0.472  -7.913  1.00 30.74     0.041 A 
HETATM   21  C6    D T9000     -13.295  -0.129  -7.412  1.00 33.28     0.122 A 
HETATM   22  N24   D T9000     -14.144  -0.973  -7.861  1.00 35.40    -0.168 NA
HETATM   23  N26   D T9000     -13.553  -1.840  -8.601  1.00 35.93    -0.252 N 
HETATM   24  C7    D T9000     -12.161  -1.607  -8.698  1.00 33.34     0.097 A 
BRANCH  23  25
HETATM   25  C20   D T9000     -14.310  -2.936  -9.250  1.00 41.25     0.110 C 
HETATM   26  C8    D T9000     -13.847  -4.309  -8.716  1.00 43.15     0.063 C 
HETATM   27  C10   D T9000     -14.657  -5.431  -9.407  1.00 45.06     0.292 C 
HETATM   28  N25   D T9000     -14.581  -5.353 -10.895  1.00 46.53     0.339 N 
HETATM   29  C11   D T9000     -14.977  -4.017 -11.428  1.00 45.16     0.292 C 
HETATM   30  C9    D T9000     -14.171  -2.864 -10.787  1.00 43.46     0.063 C 
ENDBRANCH  23  25
ENDBRANCH   7  20
TORSDOF 5
