REMARK  5 active torsions:
REMARK  status: ('A' for Active; 'I' for Inactive)
REMARK    1  A    between atoms: C17_7  and  C21_10 
REMARK    2  A    between atoms: C21_10  and  O27_12 
REMARK    3  A    between atoms: O27_12  and  C15_13 
REMARK    4  A    between atoms: C14_19  and  C16_20 
REMARK    5  A    between atoms: N26_23  and  C20_25 
ROOT
HETATM    1  C15   D T9000      -4.981  -3.546  10.606  1.00 25.51     0.125 A 
HETATM    2  C4    D T9000      -4.101  -4.620  10.975  1.00 26.27     0.029 A 
HETATM    3  C19   D T9000      -6.264  -3.937  10.096  1.00 24.04     0.173 A 
HETATM    4  N22   D T9000      -7.180  -2.936   9.717  1.00 22.39    -0.078 NA
HETATM    5  N23   D T9000      -6.670  -5.226   9.951  1.00 23.93    -0.228 NA
HETATM    6  C5    D T9000      -5.809  -6.227  10.311  1.00 26.12     0.100 A 
HETATM    7  C14   D T9000      -4.499  -5.987  10.832  1.00 28.08     0.024 A 
ENDROOT
BRANCH   1   8
HETATM    8  O27   D T9000      -4.687  -2.178  10.730  1.00 26.96    -0.326 OA
BRANCH   8   9
HETATM    9  C21   D T9000      -3.357  -1.587  10.959  1.00 29.02     0.145 C 
HETATM   10  C1    D T9000      -3.602  -0.081  11.139  1.00 31.25     0.038 C 
BRANCH   9  11
HETATM   11  C17   D T9000      -2.312  -1.847   9.807  1.00 31.05     0.029 A 
HETATM   12  C13   D T9000      -1.086  -2.591  10.087  1.00 30.66     0.057 A 
HETATM   13 CL     D T9000      -0.682  -3.234  11.651  1.00 31.95    -0.083 Cl
HETATM   14  C3    D T9000      -0.137  -2.826   9.050  1.00 30.41     0.013 A 
HETATM   15  C2    D T9000      -0.356  -2.349   7.734  1.00 31.69     0.031 A 
HETATM   16  C12   D T9000      -1.531  -1.620   7.418  1.00 33.21     0.150 A 
HETATM   17  F     D T9000      -1.693  -1.186   6.162  1.00 33.89    -0.203 F 
HETATM   18  C18   D T9000      -2.522  -1.359   8.434  1.00 33.60     0.084 A 
HETATM   19 CL2    D T9000      -3.945  -0.450   7.946  1.00 45.49    -0.080 Cl
ENDBRANCH   9  11
ENDBRANCH   8   9
ENDBRANCH   1   8
BRANCH   7  20
HETATM   20  C16   D T9000      -3.549  -7.102  11.226  1.00 30.74     0.041 A 
HETATM   21  C6    D T9000      -2.114  -6.978  11.490  1.00 33.28     0.122 A 
HETATM   22  N24   D T9000      -1.642  -8.127  11.793  1.00 35.40    -0.168 NA
HETATM   23  N26   D T9000      -2.575  -9.008  11.767  1.00 35.93    -0.252 N 
HETATM   24  C7    D T9000      -3.830  -8.454  11.417  1.00 33.34     0.097 A 
BRANCH  23  25
HETATM   25  C20   D T9000      -2.297 -10.429  12.082  1.00 41.25     0.110 C 
HETATM   26  C8    D T9000      -2.566 -11.322  10.851  1.00 43.15     0.063 C 
HETATM   27  C10   D T9000      -2.262 -12.796  11.207  1.00 45.06     0.292 C 
HETATM   28  N25   D T9000      -3.016 -13.257  12.410  1.00 46.53     0.339 N 
HETATM   29  C11   D T9000      -2.809 -12.378  13.597  1.00 45.16     0.292 C 
HETATM   30  C9    D T9000      -3.129 -10.896  13.297  1.00 43.46     0.063 C 
ENDBRANCH  23  25
ENDBRANCH   7  20
TORSDOF 5
