REMARK  5 active torsions:
REMARK  status: ('A' for Active; 'I' for Inactive)
REMARK    1  A    between atoms: C17_7  and  C21_10 
REMARK    2  A    between atoms: C21_10  and  O27_12 
REMARK    3  A    between atoms: O27_12  and  C15_13 
REMARK    4  A    between atoms: C14_19  and  C16_20 
REMARK    5  A    between atoms: N26_23  and  C20_25 
ROOT
HETATM    1  C15   D T9000      -3.122  -7.188  -5.977  1.00 25.51     0.125 A 
HETATM    2  C4    D T9000      -4.135  -8.191  -6.163  1.00 26.27     0.029 A 
HETATM    3  C19   D T9000      -1.879  -7.651  -5.428  1.00 24.04     0.173 A 
HETATM    4  N22   D T9000      -0.839  -6.724  -5.222  1.00 22.39    -0.078 NA
HETATM    5  N23   D T9000      -1.626  -8.943  -5.088  1.00 23.93    -0.228 NA
HETATM    6  C5    D T9000      -2.611  -9.874  -5.277  1.00 26.12     0.100 A 
HETATM    7  C14   D T9000      -3.898  -9.557  -5.813  1.00 28.08     0.024 A 
ENDROOT
BRANCH   1   8
HETATM    8  O27   D T9000      -3.254  -5.830  -6.310  1.00 26.96    -0.326 OA
BRANCH   8   9
HETATM    9  C21   D T9000      -4.511  -5.122  -6.612  1.00 29.02     0.145 C 
HETATM   10  C1    D T9000      -4.094  -3.704  -7.028  1.00 31.25     0.038 C 
BRANCH   9  11
HETATM   11  C17   D T9000      -5.542  -5.072  -5.421  1.00 31.05     0.029 A 
HETATM   12  C13   D T9000      -6.857  -5.695  -5.566  1.00 30.66     0.057 A 
HETATM   13 CL     D T9000      -7.383  -6.515  -7.004  1.00 31.95    -0.083 Cl
HETATM   14  C3    D T9000      -7.794  -5.649  -4.493  1.00 30.41     0.013 A 
HETATM   15  C2    D T9000      -7.479  -5.005  -3.271  1.00 31.69     0.031 A 
HETATM   16  C12   D T9000      -6.216  -4.387  -3.087  1.00 33.21     0.150 A 
HETATM   17  F     D T9000      -5.964  -3.788  -1.916  1.00 33.89    -0.203 F 
HETATM   18  C18   D T9000      -5.233  -4.409  -4.143  1.00 33.60     0.084 A 
HETATM   19 CL2    D T9000      -3.697  -3.617  -3.821  1.00 45.49    -0.080 Cl
ENDBRANCH   9  11
ENDBRANCH   8   9
ENDBRANCH   1   8
BRANCH   7  20
HETATM   20  C16   D T9000      -4.987 -10.594  -6.016  1.00 30.74     0.041 A 
HETATM   21  C6    D T9000      -6.404 -10.338  -6.278  1.00 33.28     0.122 A 
HETATM   22  N24   D T9000      -7.019 -11.453  -6.392  1.00 35.40    -0.168 NA
HETATM   23  N26   D T9000      -6.197 -12.426  -6.240  1.00 35.93    -0.252 N 
HETATM   24  C7    D T9000      -4.875 -11.984  -5.997  1.00 33.34     0.097 A 
BRANCH  23  25
HETATM   25  C20   D T9000      -6.653 -13.834  -6.325  1.00 41.25     0.110 C 
HETATM   26  C8    D T9000      -6.454 -14.553  -4.973  1.00 43.15     0.063 C 
HETATM   27  C10   D T9000      -6.942 -16.016  -5.091  1.00 45.06     0.292 C 
HETATM   28  N25   D T9000      -6.287 -16.746  -6.216  1.00 46.53     0.339 N 
HETATM   29  C11   D T9000      -6.425 -16.041  -7.524  1.00 45.16     0.292 C 
HETATM   30  C9    D T9000      -5.921 -14.581  -7.462  1.00 43.46     0.063 C 
ENDBRANCH  23  25
ENDBRANCH   7  20
TORSDOF 5
