REMARK  5 active torsions:
REMARK  status: ('A' for Active; 'I' for Inactive)
REMARK    1  A    between atoms: C17_7  and  C21_10 
REMARK    2  A    between atoms: C21_10  and  O27_12 
REMARK    3  A    between atoms: O27_12  and  C15_13 
REMARK    4  A    between atoms: C14_19  and  C16_20 
REMARK    5  A    between atoms: N26_23  and  C20_25 
ROOT
HETATM    1  C15   D T9000      -3.163  -7.095  -6.029  1.00 27.55     0.125 A 
HETATM    2  C4    D T9000      -4.157  -8.117  -6.209  1.00 28.27     0.029 A 
HETATM    3  C19   D T9000      -1.905  -7.534  -5.491  1.00 26.72     0.173 A 
HETATM    4  N22   D T9000      -0.880  -6.585  -5.293  1.00 25.80    -0.078 NA
HETATM    5  N23   D T9000      -1.622  -8.824  -5.153  1.00 24.81    -0.228 NA
HETATM    6  C5    D T9000      -2.594  -9.774  -5.336  1.00 28.27     0.100 A 
HETATM    7  C14   D T9000      -3.895  -9.483  -5.863  1.00 30.75     0.024 A 
ENDROOT
BRANCH   1   8
HETATM    8  O27   D T9000      -3.322  -5.738  -6.359  1.00 29.26    -0.326 OA
BRANCH   8   9
HETATM    9  C21   D T9000      -4.596  -5.055  -6.649  1.00 32.38     0.145 C 
HETATM   10  C1    D T9000      -4.209  -3.622  -7.056  1.00 32.72     0.038 C 
BRANCH   9  11
HETATM   11  C17   D T9000      -5.634  -5.042  -5.459  1.00 34.58     0.029 A 
HETATM   12  C13   D T9000      -6.930  -5.691  -5.626  1.00 34.39     0.057 A 
HETATM   13 CL     D T9000      -7.415  -6.501  -7.084  1.00 35.41    -0.083 Cl
HETATM   14  C3    D T9000      -7.881  -5.685  -4.563  1.00 34.67     0.013 A 
HETATM   15  C2    D T9000      -7.596  -5.053  -3.328  1.00 35.13     0.031 A 
HETATM   16  C12   D T9000      -6.347  -4.409  -3.122  1.00 37.02     0.150 A 
HETATM   17  F     D T9000      -6.118  -3.823  -1.942  1.00 37.34    -0.203 F 
HETATM   18  C18   D T9000      -5.354  -4.390  -4.168  1.00 36.91     0.084 A 
HETATM   19 CL2    D T9000      -3.847  -3.570  -3.808  1.00 49.38    -0.080 Cl
ENDBRANCH   9  11
ENDBRANCH   8   9
ENDBRANCH   1   8
BRANCH   7  20
HETATM   20  C16   D T9000      -4.970 -10.544  -6.066  1.00 32.36     0.041 A 
HETATM   21  C6    D T9000      -6.391 -10.317  -6.342  1.00 35.90     0.122 A 
HETATM   22  N24   D T9000      -6.988 -11.446  -6.455  1.00 36.91    -0.168 NA
HETATM   23  N26   D T9000      -6.148 -12.404  -6.289  1.00 38.66    -0.252 N 
HETATM   24  C7    D T9000      -4.837 -11.933  -6.035  1.00 35.41     0.097 A 
BRANCH  23  25
HETATM   25  C20   D T9000      -6.577 -13.824  -6.370  1.00 43.14     0.110 C 
HETATM   26  C8    D T9000      -6.537 -14.482  -4.972  1.00 45.28     0.063 C 
HETATM   27  C10   D T9000      -6.992 -15.958  -5.080  1.00 46.38     0.292 C 
HETATM   28  N25   D T9000      -6.201 -16.726  -6.083  1.00 47.91     0.339 N 
HETATM   29  C11   D T9000      -6.186 -16.080  -7.429  1.00 46.73     0.292 C 
HETATM   30  C9    D T9000      -5.705 -14.612  -7.375  1.00 45.30     0.063 C 
ENDBRANCH  23  25
ENDBRANCH   7  20
TORSDOF 5
