REMARK  5 active torsions:
REMARK  status: ('A' for Active; 'I' for Inactive)
REMARK    1  A    between atoms: C17_7  and  C21_10 
REMARK    2  A    between atoms: C21_10  and  O27_12 
REMARK    3  A    between atoms: O27_12  and  C15_13 
REMARK    4  A    between atoms: C14_19  and  C16_20 
REMARK    5  A    between atoms: N26_23  and  C20_25 
ROOT
HETATM    1  C15   D T9000      -4.885  -3.460  10.651  1.00 27.55     0.125 A 
HETATM    2  C4    D T9000      -4.027  -4.554  11.014  1.00 28.27     0.029 A 
HETATM    3  C19   D T9000      -6.182  -3.823  10.150  1.00 26.72     0.173 A 
HETATM    4  N22   D T9000      -7.080  -2.799   9.779  1.00 25.80    -0.078 NA
HETATM    5  N23   D T9000      -6.618  -5.106  10.006  1.00 24.81    -0.228 NA
HETATM    6  C5    D T9000      -5.774  -6.126  10.360  1.00 28.27     0.100 A 
HETATM    7  C14   D T9000      -4.452  -5.915  10.874  1.00 30.75     0.024 A 
ENDROOT
BRANCH   1   8
HETATM    8  O27   D T9000      -4.562  -2.098  10.773  1.00 29.26    -0.326 OA
BRANCH   8   9
HETATM    9  C21   D T9000      -3.217  -1.536  10.992  1.00 32.38     0.145 C 
HETATM   10  C1    D T9000      -3.427  -0.021  11.164  1.00 32.72     0.038 C 
BRANCH   9  11
HETATM   11  C17   D T9000      -2.173  -1.834   9.845  1.00 34.58     0.029 A 
HETATM   12  C13   D T9000      -0.969  -2.601  10.147  1.00 34.39     0.057 A 
HETATM   13 CL     D T9000      -0.602  -3.227  11.725  1.00 35.41    -0.083 Cl
HETATM   14  C3    D T9000      -0.014  -2.875   9.124  1.00 34.67     0.013 A 
HETATM   15  C2    D T9000      -0.207  -2.413   7.799  1.00 35.13     0.031 A 
HETATM   16  C12   D T9000      -1.364  -1.663   7.461  1.00 37.02     0.150 A 
HETATM   17  F     D T9000      -1.507  -1.245   6.198  1.00 37.34    -0.203 F 
HETATM   18  C18   D T9000      -2.357  -1.362   8.462  1.00 36.91     0.084 A 
HETATM   19 CL2    D T9000      -3.747  -0.432   7.937  1.00 49.38    -0.080 Cl
ENDBRANCH   9  11
ENDBRANCH   8   9
ENDBRANCH   1   8
BRANCH   7  20
HETATM   20  C16   D T9000      -3.519  -7.054  11.267  1.00 32.36     0.041 A 
HETATM   21  C6    D T9000      -2.083  -6.960  11.547  1.00 35.90     0.122 A 
HETATM   22  N24   D T9000      -1.631  -8.121  11.848  1.00 36.91    -0.168 NA
HETATM   23  N26   D T9000      -2.582  -8.985  11.807  1.00 38.66    -0.252 N 
HETATM   24  C7    D T9000      -3.822  -8.405  11.447  1.00 35.41     0.097 A 
BRANCH  23  25
HETATM   25  C20   D T9000      -2.332 -10.416  12.117  1.00 43.14     0.110 C 
HETATM   26  C8    D T9000      -2.440 -11.274  10.836  1.00 45.28     0.063 C 
HETATM   27  C10   D T9000      -2.172 -12.760  11.181  1.00 46.38     0.292 C 
HETATM   28  N25   D T9000      -3.062 -13.261  12.268  1.00 47.91     0.339 N 
HETATM   29  C11   D T9000      -3.010 -12.417  13.497  1.00 46.73     0.292 C 
HETATM   30  C9    D T9000      -3.306 -10.927  13.205  1.00 45.30     0.063 C 
ENDBRANCH  23  25
ENDBRANCH   7  20
TORSDOF 5
