REMARK  5 active torsions:
REMARK  status: ('A' for Active; 'I' for Inactive)
REMARK    1  A    between atoms: C17_7  and  C21_10 
REMARK    2  A    between atoms: C21_10  and  O27_12 
REMARK    3  A    between atoms: O27_12  and  C15_13 
REMARK    4  A    between atoms: C14_19  and  C16_20 
REMARK    5  A    between atoms: N26_23  and  C20_25 
ROOT
HETATM    1  C15   D T9000      -4.148   0.266  14.014  1.00 27.55     0.125 A 
HETATM    2  C4    D T9000      -3.260  -0.760  14.484  1.00 28.27     0.029 A 
HETATM    3  C19   D T9000      -5.515  -0.132  13.815  1.00 26.72     0.173 A 
HETATM    4  N22   D T9000      -6.444   0.827  13.361  1.00 25.80    -0.078 NA
HETATM    5  N23   D T9000      -5.988  -1.390  14.039  1.00 24.81    -0.228 NA
HETATM    6  C5    D T9000      -5.113  -2.347  14.485  1.00 28.27     0.100 A 
HETATM    7  C14   D T9000      -3.723  -2.095  14.727  1.00 30.75     0.024 A 
ENDROOT
BRANCH   1   8
HETATM    8  O27   D T9000      -3.789   1.603  13.769  1.00 29.26    -0.326 OA
BRANCH   8   9
HETATM    9  C21   D T9000      -2.417   2.129  13.644  1.00 32.38     0.145 C 
HETATM   10  C1    D T9000      -2.574   3.652  13.493  1.00 32.72     0.038 C 
BRANCH   9  11
HETATM   11  C17   D T9000      -1.577   1.527  12.451  1.00 34.58     0.029 A 
HETATM   12  C13   D T9000      -0.352   0.787  12.732  1.00 34.39     0.057 A 
HETATM   13 CL     D T9000       0.255   0.513  14.337  1.00 35.41    -0.083 Cl
HETATM   14  C3    D T9000       0.422   0.240  11.666  1.00 34.67     0.013 A 
HETATM   15  C2    D T9000       0.025   0.402  10.316  1.00 35.13     0.031 A 
HETATM   16  C12   D T9000      -1.160   1.116   9.996  1.00 37.02     0.150 A 
HETATM   17  F     D T9000      -1.497   1.247   8.708  1.00 37.34    -0.203 F 
HETATM   18  C18   D T9000      -1.974   1.685  11.041  1.00 36.91     0.084 A 
HETATM   19 CL2    D T9000      -3.416   2.544  10.535  1.00 49.38    -0.080 Cl
ENDBRANCH   9  11
ENDBRANCH   8   9
ENDBRANCH   1   8
BRANCH   7  20
HETATM   20  C16   D T9000      -2.756  -3.163  15.225  1.00 32.36     0.041 A 
HETATM   21  C6    D T9000      -1.292  -3.082  15.252  1.00 35.90     0.122 A 
HETATM   22  N24   D T9000      -0.816  -4.168  15.739  1.00 36.91    -0.168 NA
HETATM   23  N26   D T9000      -1.774  -4.969  16.044  1.00 38.66    -0.252 N 
HETATM   24  C7    D T9000      -3.047  -4.421  15.754  1.00 35.41     0.097 A 
BRANCH  23  25
HETATM   25  C20   D T9000      -1.500  -6.305  16.633  1.00 43.14     0.110 C 
HETATM   26  C8    D T9000      -1.826  -7.421  15.616  1.00 45.28     0.063 C 
HETATM   27  C10   D T9000      -1.528  -8.804  16.248  1.00 46.38     0.292 C 
HETATM   28  N25   D T9000      -2.240  -9.001  17.544  1.00 47.91     0.339 N 
HETATM   29  C11   D T9000      -1.977  -7.906  18.523  1.00 46.73     0.292 C 
HETATM   30  C9    D T9000      -2.293  -6.507  17.945  1.00 45.30     0.063 C 
ENDBRANCH  23  25
ENDBRANCH   7  20
TORSDOF 5
