REMARK  5 active torsions:
REMARK  status: ('A' for Active; 'I' for Inactive)
REMARK    1  A    between atoms: C17_7  and  C21_10 
REMARK    2  A    between atoms: C21_10  and  O27_12 
REMARK    3  A    between atoms: O27_12  and  C15_13 
REMARK    4  A    between atoms: C14_19  and  C16_20 
REMARK    5  A    between atoms: N26_23  and  C20_25 
ROOT
HETATM    1  C15   D T9000       4.103  11.736   2.798  1.00 27.55     0.125 A 
HETATM    2  C4    D T9000       5.533  11.799   2.927  1.00 28.27     0.029 A 
HETATM    3  C19   D T9000       3.467  10.614   3.432  1.00 26.72     0.173 A 
HETATM    4  N22   D T9000       2.063  10.492   3.352  1.00 25.80    -0.078 NA
HETATM    5  N23   D T9000       4.131   9.643   4.120  1.00 24.81    -0.228 NA
HETATM    6  C5    D T9000       5.495   9.732   4.222  1.00 28.27     0.100 A 
HETATM    7  C14   D T9000       6.263  10.794   3.641  1.00 30.75     0.024 A 
ENDROOT
BRANCH   1   8
HETATM    8  O27   D T9000       3.303  12.684   2.137  1.00 29.26    -0.326 OA
BRANCH   8   9
HETATM    9  C21   D T9000       3.775  13.726   1.206  1.00 32.38     0.145 C 
HETATM   10  C1    D T9000       2.528  14.558   0.856  1.00 32.72     0.038 C 
BRANCH   9  11
HETATM   11  C17   D T9000       4.478  13.187  -0.100  1.00 34.58     0.029 A 
HETATM   12  C13   D T9000       5.873  13.528  -0.362  1.00 34.39     0.057 A 
HETATM   13 CL     D T9000       6.834  14.509   0.701  1.00 35.41    -0.083 Cl
HETATM   14  C3    D T9000       6.522  13.053  -1.539  1.00 34.67     0.013 A 
HETATM   15  C2    D T9000       5.836  12.246  -2.479  1.00 35.13     0.031 A 
HETATM   16  C12   D T9000       4.478  11.889  -2.265  1.00 37.02     0.150 A 
HETATM   17  F     D T9000       3.867  11.127  -3.178  1.00 37.34    -0.203 F 
HETATM   18  C18   D T9000       3.781  12.346  -1.088  1.00 36.91     0.084 A 
HETATM   19 CL2    D T9000       2.108  11.847  -0.922  1.00 49.38    -0.080 Cl
ENDBRANCH   9  11
ENDBRANCH   8   9
ENDBRANCH   1   8
BRANCH   7  20
HETATM   20  C16   D T9000       7.780  10.888   3.759  1.00 32.36     0.041 A 
HETATM   21  C6    D T9000       8.670  11.767   2.996  1.00 35.90     0.122 A 
HETATM   22  N24   D T9000       9.881  11.572   3.368  1.00 36.91    -0.168 NA
HETATM   23  N26   D T9000       9.919  10.672   4.285  1.00 38.66    -0.252 N 
HETATM   24  C7    D T9000       8.632  10.174   4.604  1.00 35.41     0.097 A 
BRANCH  23  25
HETATM   25  C20   D T9000      11.206  10.253   4.898  1.00 43.14     0.110 C 
HETATM   26  C8    D T9000      11.574   8.820   4.454  1.00 45.28     0.063 C 
HETATM   27  C10   D T9000      12.919   8.405   5.099  1.00 46.38     0.292 C 
HETATM   28  N25   D T9000      12.905   8.546   6.584  1.00 47.91     0.339 N 
HETATM   29  C11   D T9000      12.503   9.911   7.034  1.00 46.73     0.292 C 
HETATM   30  C9    D T9000      11.146  10.353   6.440  1.00 45.30     0.063 C 
ENDBRANCH  23  25
ENDBRANCH   7  20
TORSDOF 5
