REMARK  5 active torsions:
REMARK  status: ('A' for Active; 'I' for Inactive)
REMARK    1  A    between atoms: C17_7  and  C21_10 
REMARK    2  A    between atoms: C21_10  and  O27_12 
REMARK    3  A    between atoms: O27_12  and  C15_13 
REMARK    4  A    between atoms: C14_19  and  C16_20 
REMARK    5  A    between atoms: N26_23  and  C20_25 
ROOT
HETATM    1  C15   D T9000      -4.323   1.218  13.900  1.00 27.55     0.125 A 
HETATM    2  C4    D T9000      -3.379   0.269  14.424  1.00 28.27     0.029 A 
HETATM    3  C19   D T9000      -5.668   0.739  13.739  1.00 26.72     0.173 A 
HETATM    4  N22   D T9000      -6.648   1.619  13.235  1.00 25.80    -0.078 NA
HETATM    5  N23   D T9000      -6.074  -0.526  14.045  1.00 24.81    -0.228 NA
HETATM    6  C5    D T9000      -5.149  -1.407  14.541  1.00 28.27     0.100 A 
HETATM    7  C14   D T9000      -3.772  -1.070  14.754  1.00 30.75     0.024 A 
ENDROOT
BRANCH   1   8
HETATM    8  O27   D T9000      -4.034   2.553  13.569  1.00 29.26    -0.326 OA
BRANCH   8   9
HETATM    9  C21   D T9000      -2.692   3.139  13.399  1.00 32.38     0.145 C 
HETATM   10  C1    D T9000      -2.928   4.640  13.154  1.00 32.72     0.038 C 
BRANCH   9  11
HETATM   11  C17   D T9000      -1.829   2.508  12.237  1.00 34.58     0.029 A 
HETATM   12  C13   D T9000      -0.566   1.849  12.553  1.00 34.39     0.057 A 
HETATM   13 CL     D T9000       0.064   1.707  14.165  1.00 35.41    -0.083 Cl
HETATM   14  C3    D T9000       0.228   1.277  11.515  1.00 34.67     0.013 A 
HETATM   15  C2    D T9000      -0.184   1.334  10.162  1.00 35.13     0.031 A 
HETATM   16  C12   D T9000      -1.407   1.965   9.809  1.00 37.02     0.150 A 
HETATM   17  F     D T9000      -1.758   1.998   8.518  1.00 37.34    -0.203 F 
HETATM   18  C18   D T9000      -2.243   2.556  10.824  1.00 36.91     0.084 A 
HETATM   19 CL2    D T9000      -3.730   3.308  10.280  1.00 49.38    -0.080 Cl
ENDBRANCH   9  11
ENDBRANCH   8   9
ENDBRANCH   1   8
BRANCH   7  20
HETATM   20  C16   D T9000      -2.748  -2.054  15.308  1.00 32.36     0.041 A 
HETATM   21  C6    D T9000      -1.291  -1.898  15.316  1.00 35.90     0.122 A 
HETATM   22  N24   D T9000      -0.756  -2.925  15.866  1.00 36.91    -0.168 NA
HETATM   23  N26   D T9000      -1.670  -3.753  16.228  1.00 38.66    -0.252 N 
HETATM   24  C7    D T9000      -2.971  -3.290  15.917  1.00 35.41     0.097 A 
BRANCH  23  25
HETATM   25  C20   D T9000      -1.324  -5.034  16.897  1.00 43.14     0.110 C 
HETATM   26  C8    D T9000      -1.598  -6.227  15.954  1.00 45.28     0.063 C 
HETATM   27  C10   D T9000      -1.226  -7.550  16.668  1.00 46.38     0.292 C 
HETATM   28  N25   D T9000      -1.918  -7.702  17.980  1.00 47.91     0.339 N 
HETATM   29  C11   D T9000      -1.706  -6.536  18.887  1.00 46.73     0.292 C 
HETATM   30  C9    D T9000      -2.097  -5.194  18.226  1.00 45.30     0.063 C 
ENDBRANCH  23  25
ENDBRANCH   7  20
TORSDOF 5
