REMARK  6 active torsions:
REMARK  status: ('A' for Active; 'I' for Inactive)
REMARK    1  A    between atoms: C3_3  and  C19_19 
REMARK    2  A    between atoms: C4_4  and  O9_9 
REMARK    3  A    between atoms: O9_9  and  C10_10 
REMARK    4  A    between atoms: C13_13  and  N16_16 
REMARK    5  A    between atoms: C22_22  and  C24_24 
REMARK       I    between atoms: C24_24  and  N26_26 
REMARK    6  A    between atoms: N26_26  and  C27_27 
ROOT
HETATM    1  C1    D T1226      22.784  -0.218 -29.406  1.00  8.42     0.055 A 
HETATM    2  C2    D T1226      24.044   0.369 -29.402  1.00  8.23     0.137 A 
HETATM    3  C3    D T1226      25.149  -0.398 -29.137  1.00  9.08     0.073 A 
HETATM    4  C4    D T1226      25.054  -1.759 -28.965  1.00  9.37     0.106 A 
HETATM    5  C5    D T1226      23.804  -2.391 -29.024  1.00  8.83     0.052 A 
HETATM    6  C6    D T1226      22.683  -1.592 -29.244  1.00  8.45     0.135 A 
HETATM    7  O7    D T1226      21.479  -2.200 -29.271  1.00  8.60    -0.190 OA
HETATM    8  O8    D T1226      24.149   1.724 -29.557  1.00  8.68    -0.190 OA
ENDROOT
BRANCH   3   9
HETATM    9  C19   D T1226      26.458   0.256 -29.088  1.00  9.48     0.131 A 
HETATM   10  O20   D T1226      26.856   1.215 -29.925  1.00 10.60    -0.211 OA
HETATM   11  N21   D T1226      28.227   1.646 -29.553  1.00 11.15    -0.121 NA
HETATM   12  C22   D T1226      28.553   0.880 -28.519  1.00 10.03     0.167 A 
HETATM   13  C23   D T1226      27.493   0.038 -28.181  1.00 10.23     0.053 A 
BRANCH  12  14
HETATM   14  C24   D T1226      29.864   0.937 -27.818  1.00 10.68     0.295 C 
HETATM   15  O25   D T1226      29.912   0.583 -26.640  1.00 10.93    -0.264 OA
HETATM   16  N26   D T1226      30.907   1.352 -28.549  1.00 11.03    -0.235 NA
BRANCH  16  17
HETATM   17  C27   D T1226      32.261   1.433 -28.010  1.00 11.67     0.111 C 
HETATM   18  C28   D T1226      33.105   2.267 -29.016  1.00 12.92     0.060 C 
HETATM   19  C29   D T1226      34.590   2.122 -28.600  1.00 12.85     0.252 C 
HETATM   20  N30   D T1226      34.994   0.697 -28.649  1.00 13.15     0.139 N 
HETATM   21  C31   D T1226      34.255  -0.057 -27.637  1.00 12.56     0.252 C 
HETATM   22  C33   D T1226      36.461   0.544 -28.360  1.00 13.44     0.285 C 
HETATM   23  C32   D T1226      32.760  -0.014 -27.977  1.00 11.99     0.060 C 
ENDBRANCH  16  17
ENDBRANCH  12  14
ENDBRANCH   3   9
BRANCH   4  24
HETATM   24  O9    D T1226      26.188  -2.462 -28.803  1.00 10.58    -0.307 OA
BRANCH  24  25
HETATM   25  C10   D T1226      26.247  -3.479 -27.912  1.00 12.96     0.100 A 
HETATM   26  C11   D T1226      26.869  -4.624 -28.417  1.00 15.50     0.026 A 
HETATM   27  C12   D T1226      27.012  -5.702 -27.562  1.00 17.75     0.026 A 
HETATM   28  C13   D T1226      26.480  -5.633 -26.298  1.00 19.96     0.127 A 
HETATM   29  C14   D T1226      25.861  -4.485 -25.784  1.00 17.19     0.026 A 
HETATM   30  C15   D T1226      25.726  -3.372 -26.617  1.00 14.44     0.026 A 
BRANCH  28  31
HETATM   31  N16   D T1226      26.683  -6.772 -25.519  1.00 25.47    -0.114 N 
HETATM   32  O17   D T1226      26.960  -6.573 -24.345  1.00 30.97    -0.532 OA
HETATM   33  O18   D T1226      26.625  -7.893 -26.017  1.00 31.23    -0.532 OA
ENDBRANCH  28  31
ENDBRANCH  24  25
ENDBRANCH   4  24
TORSDOF 6
