REMARK  6 active torsions:
REMARK  status: ('A' for Active; 'I' for Inactive)
REMARK    1  A    between atoms: C3_3  and  C19_19 
REMARK    2  A    between atoms: C4_4  and  O9_9 
REMARK    3  A    between atoms: O9_9  and  C10_10 
REMARK    4  A    between atoms: C13_13  and  N16_16 
REMARK    5  A    between atoms: C22_22  and  C24_24 
REMARK       I    between atoms: C24_24  and  N26_26 
REMARK    6  A    between atoms: N26_26  and  C27_27 
ROOT
HETATM    1  C1    D T1226      22.986  -0.528 -29.648  1.00  8.42     0.055 A 
HETATM    2  C2    D T1226      24.228   0.096 -29.658  1.00  8.23     0.137 A 
HETATM    3  C3    D T1226      25.352  -0.628 -29.356  1.00  9.08     0.073 A 
HETATM    4  C4    D T1226      25.296  -1.983 -29.131  1.00  9.37     0.106 A 
HETATM    5  C5    D T1226      24.066  -2.654 -29.175  1.00  8.83     0.052 A 
HETATM    6  C6    D T1226      22.924  -1.897 -29.433  1.00  8.45     0.135 A 
HETATM    7  O7    D T1226      21.738  -2.541 -29.446  1.00  8.60    -0.190 OA
HETATM    8  O8    D T1226      24.295   1.447 -29.864  1.00  8.68    -0.190 OA
ENDROOT
BRANCH   3   9
HETATM    9  C19   D T1226      26.642   0.066 -29.323  1.00  9.48     0.131 A 
HETATM   10  O20   D T1226      27.018   1.004 -30.193  1.00 10.60    -0.211 OA
HETATM   11  N21   D T1226      28.373   1.489 -29.828  1.00 11.15    -0.121 NA
HETATM   12  C22   D T1226      28.713   0.773 -28.763  1.00 10.03     0.167 A 
HETATM   13  C23   D T1226      27.675  -0.086 -28.401  1.00 10.23     0.053 A 
BRANCH  12  14
HETATM   14  C24   D T1226      30.016   0.896 -28.055  1.00 10.68     0.295 C 
HETATM   15  O25   D T1226      30.065   0.589 -26.864  1.00 10.93    -0.264 OA
HETATM   16  N26   D T1226      31.052   1.313 -28.795  1.00 11.03    -0.235 NA
BRANCH  16  17
HETATM   17  C27   D T1226      32.399   1.454 -28.249  1.00 11.67     0.111 C 
HETATM   18  C28   D T1226      33.226   2.274 -29.281  1.00 12.92     0.060 C 
HETATM   19  C29   D T1226      34.712   2.189 -28.849  1.00 12.85     0.252 C 
HETATM   20  N30   D T1226      35.157   0.775 -28.840  1.00 13.15     0.139 N 
HETATM   21  C31   D T1226      34.432   0.040 -27.804  1.00 12.56     0.252 C 
HETATM   22  C33   D T1226      36.626   0.678 -28.534  1.00 13.44     0.285 C 
HETATM   23  C32   D T1226      32.940   0.025 -28.157  1.00 11.99     0.060 C 
ENDBRANCH  16  17
ENDBRANCH  12  14
ENDBRANCH   3   9
BRANCH   4  24
HETATM   24  O9    D T1226      26.449  -2.646 -28.934  1.00 10.58    -0.307 OA
BRANCH  24  25
HETATM   25  C10   D T1226      26.530  -3.625 -28.005  1.00 12.96     0.100 A 
HETATM   26  C11   D T1226      27.189  -4.770 -28.460  1.00 15.50     0.026 A 
HETATM   27  C12   D T1226      27.357  -5.810 -27.563  1.00 17.75     0.026 A 
HETATM   28  C13   D T1226      26.812  -5.708 -26.306  1.00 19.96     0.127 A 
HETATM   29  C14   D T1226      26.156  -4.559 -25.842  1.00 17.19     0.026 A 
HETATM   30  C15   D T1226      25.995  -3.484 -26.718  1.00 14.44     0.026 A 
BRANCH  28  31
HETATM   31  N16   D T1226      27.042  -6.809 -25.482  1.00 25.47    -0.114 N 
HETATM   32  O17   D T1226      27.303  -6.558 -24.315  1.00 30.97    -0.532 OA
HETATM   33  O18   D T1226      27.021  -7.950 -25.937  1.00 31.23    -0.532 OA
ENDBRANCH  28  31
ENDBRANCH  24  25
ENDBRANCH   4  24
TORSDOF 6
