REMARK  6 active torsions:
REMARK  status: ('A' for Active; 'I' for Inactive)
REMARK    1  A    between atoms: C3_3  and  C19_19 
REMARK    2  A    between atoms: C4_4  and  O9_9 
REMARK    3  A    between atoms: O9_9  and  C10_10 
REMARK    4  A    between atoms: C13_13  and  N16_16 
REMARK    5  A    between atoms: C22_22  and  C24_24 
REMARK       I    between atoms: C24_24  and  N26_26 
REMARK    6  A    between atoms: N26_26  and  C27_27 
ROOT
HETATM    1  C1    D T1226      23.037  -0.192 -29.569  1.00  8.42     0.055 A 
HETATM    2  C2    D T1226      24.248   0.492 -29.594  1.00  8.23     0.137 A 
HETATM    3  C3    D T1226      25.404  -0.166 -29.262  1.00  9.08     0.073 A 
HETATM    4  C4    D T1226      25.412  -1.514 -28.993  1.00  9.37     0.106 A 
HETATM    5  C5    D T1226      24.217  -2.245 -29.020  1.00  8.83     0.052 A 
HETATM    6  C6    D T1226      23.041  -1.554 -29.309  1.00  8.45     0.135 A 
HETATM    7  O7    D T1226      21.888  -2.256 -29.305  1.00  8.60    -0.190 OA
HETATM    8  O8    D T1226      24.250   1.836 -29.845  1.00  8.68    -0.190 OA
ENDROOT
BRANCH   3   9
HETATM    9  C19   D T1226      26.658   0.591 -29.247  1.00  9.48     0.131 A 
HETATM   10  O20   D T1226      26.994   1.517 -30.146  1.00 10.60    -0.211 OA
HETATM   11  N21   D T1226      28.321   2.080 -29.791  1.00 11.15    -0.121 NA
HETATM   12  C22   D T1226      28.689   1.416 -28.701  1.00 10.03     0.167 A 
HETATM   13  C23   D T1226      27.692   0.520 -28.315  1.00 10.23     0.053 A 
BRANCH  12  14
HETATM   14  C24   D T1226      29.980   1.626 -27.992  1.00 10.68     0.295 C 
HETATM   15  O25   D T1226      30.036   1.362 -26.791  1.00 10.93    -0.264 OA
HETATM   16  N26   D T1226      30.999   2.069 -28.740  1.00 11.03    -0.235 NA
BRANCH  16  17
HETATM   17  C27   D T1226      32.334   2.294 -28.193  1.00 11.67     0.111 C 
HETATM   18  C28   D T1226      33.127   3.118 -29.248  1.00 12.92     0.060 C 
HETATM   19  C29   D T1226      34.612   3.121 -28.806  1.00 12.85     0.252 C 
HETATM   20  N30   D T1226      35.125   1.732 -28.749  1.00 13.15     0.139 N 
HETATM   21  C31   D T1226      34.431   0.996 -27.692  1.00 12.56     0.252 C 
HETATM   22  C33   D T1226      36.595   1.716 -28.433  1.00 13.44     0.285 C 
HETATM   23  C32   D T1226      32.943   0.897 -28.051  1.00 11.99     0.060 C 
ENDBRANCH  16  17
ENDBRANCH  12  14
ENDBRANCH   3   9
BRANCH   4  24
HETATM   24  O9    D T1226      26.595  -2.113 -28.769  1.00 10.58    -0.307 OA
BRANCH  24  25
HETATM   25  C10   D T1226      26.718  -3.056 -27.807  1.00 12.96     0.100 A 
HETATM   26  C11   D T1226      27.435  -4.181 -28.220  1.00 15.50     0.026 A 
HETATM   27  C12   D T1226      27.648  -5.182 -27.288  1.00 17.75     0.026 A 
HETATM   28  C13   D T1226      27.091  -5.065 -26.038  1.00 19.96     0.127 A 
HETATM   29  C14   D T1226      26.377  -3.935 -25.616  1.00 17.19     0.026 A 
HETATM   30  C15   D T1226      26.169  -2.899 -26.528  1.00 14.44     0.026 A 
BRANCH  28  31
HETATM   31  N16   D T1226      27.369  -6.126 -25.177  1.00 25.47    -0.114 N 
HETATM   32  O17   D T1226      27.610  -5.823 -24.017  1.00 30.97    -0.532 OA
HETATM   33  O18   D T1226      27.406  -7.281 -25.594  1.00 31.23    -0.532 OA
ENDBRANCH  28  31
ENDBRANCH  24  25
ENDBRANCH   4  24
TORSDOF 6
