REMARK  7 active torsions:
REMARK  status: ('A' for Active; 'I' for Inactive)
REMARK    1  A    between atoms: N3_2  and  C20_12 
REMARK    2  A    between atoms: C4_3  and  C5_4 
REMARK    3  A    between atoms: C13_9  and  N2_29 
REMARK    4  A    between atoms: C17_11  and  C19_33 
REMARK    5  A    between atoms: C20_12  and  C16_31 
REMARK    6  A    between atoms: C2_23  and  C3_24 
REMARK    7  A    between atoms: C9_25  and  C12_27 
REMARK       I    between atoms: C12_27  and  N2_29 
ROOT
HETATM    1  C12   D T1000      -5.760   6.800   8.520  1.00 43.27     0.279 C 
HETATM    2  O1    D T1000      -5.457   5.759   7.915  1.00 42.40    -0.265 OA
HETATM    3  N2    D T1000      -6.094   8.052   7.828  1.00 39.93    -0.208 NA
ENDROOT
BRANCH   1   4
HETATM    4  C9    D T1000      -5.898   6.702  10.032  1.00 40.54     0.059 A 
HETATM    5  C8    D T1000      -6.379   7.722  10.834  1.00 39.10     0.004 A 
HETATM    6  C7    D T1000      -6.538   7.508  12.221  1.00 41.02    -0.004 A 
HETATM    7  C6    D T1000      -6.256   6.270  12.821  1.00 41.29    -0.014 A 
HETATM    8  C5    D T1000      -5.777   5.275  12.014  1.00 41.18     0.038 A 
HETATM    9  C11   D T1000      -6.441   6.034  14.290  1.00 38.87     0.032 C 
HETATM   10  C10   D T1000      -5.643   5.462  10.612  1.00 39.13     0.013 A 
BRANCH   8  11
HETATM   11  C4    D T1000      -5.470   3.885  12.508  1.00 40.03    -0.058 C 
HETATM   12  C3    D T1000      -5.272   2.801  12.929  1.00 38.63    -0.039 C 
BRANCH  12  13
HETATM   13  C2    D T1000      -5.039   1.411  13.389  1.00 38.26     0.145 A 
HETATM   14  N82   D T1000      -3.884   0.736  13.671  1.00 40.77    -0.203 N 
HETATM   15  N81   D T1000      -2.567   1.114  13.596  1.00 38.88    -0.162 NA
HETATM   16  C84   D T1000      -4.266  -0.522  14.092  1.00 40.90     0.165 A 
HETATM   17  C83   D T1000      -1.616   0.243  13.959  1.00 41.85     0.121 A 
HETATM   18  C82   D T1000      -1.942  -1.022  14.389  1.00 42.85     0.026 A 
HETATM   19  C81   D T1000      -3.259  -1.439  14.462  1.00 42.17     0.041 A 
HETATM   20  N1    D T1000      -5.606  -0.621  14.049  1.00 37.62    -0.223 NA
HETATM   21  C1    D T1000      -6.101   0.535  13.628  1.00 35.75     0.128 A 
ENDBRANCH  12  13
ENDBRANCH   8  11
ENDBRANCH   1   4
BRANCH   3  22
HETATM   22  C13   D T1000      -6.109   8.248   6.414  1.00 41.48     0.085 A 
HETATM   23  C14   D T1000      -5.767   9.418   5.786  1.00 41.52     0.019 A 
HETATM   24  C15   D T1000      -5.883   9.498   4.390  1.00 43.29    -0.001 A 
HETATM   25  C16   D T1000      -6.361   8.424   3.632  1.00 41.94     0.004 A 
HETATM   26  C17   D T1000      -6.719   7.244   4.243  1.00 41.92     0.071 A 
HETATM   27  C18   D T1000      -6.622   7.174   5.642  1.00 42.85     0.023 A 
BRANCH  25  28
HETATM   28  C20   D T1000      -6.440   8.673   2.124  1.00 42.14     0.124 C 
BRANCH  28  29
HETATM   29  N3    D T1000      -5.523   9.795   1.774  1.00 43.91    -0.362 N 
HETATM   30  C21   D T1000      -4.137   9.363   1.640  1.00 45.37     0.121 C 
HETATM   31  C22   D T1000      -3.266  10.587   1.467  1.00 47.91     0.121 C 
HETATM   32  N4    D T1000      -3.701  11.404   0.348  1.00 47.69    -0.364 N 
HETATM   33  C23   D T1000      -4.986  11.101  -0.218  1.00 46.74     0.121 C 
HETATM   34  C25   D T1000      -2.671  12.040  -0.463  1.00 50.05     0.121 C 
HETATM   35  C24   D T1000      -5.993  10.824   0.878  1.00 45.99     0.121 C 
ENDBRANCH  28  29
ENDBRANCH  25  28
BRANCH  26  36
HETATM   36  C19   D T1000      -7.265   6.079   3.454  1.00 48.32     0.419 C 
HETATM   37  F1    D T1000      -8.263   6.577   2.702  1.00 50.04    -0.166 F 
HETATM   38  F2    D T1000      -7.835   5.159   4.250  1.00 52.24    -0.166 F 
HETATM   39  F3    D T1000      -6.309   5.503   2.703  1.00 44.36    -0.166 F 
ENDBRANCH  26  36
ENDBRANCH   3  22
TORSDOF 7
