REMARK  7 active torsions:
REMARK  status: ('A' for Active; 'I' for Inactive)
REMARK    1  A    between atoms: N3_2  and  C20_12 
REMARK    2  A    between atoms: C4_3  and  C5_4 
REMARK    3  A    between atoms: C13_9  and  N2_29 
REMARK    4  A    between atoms: C17_11  and  C19_33 
REMARK    5  A    between atoms: C20_12  and  C16_31 
REMARK    6  A    between atoms: C2_23  and  C3_24 
REMARK    7  A    between atoms: C9_25  and  C12_27 
REMARK       I    between atoms: C12_27  and  N2_29 
ROOT
HETATM    1  C12   D T1000       5.434  -4.460  -5.441  1.00 43.27     0.279 C 
HETATM    2  O1    D T1000       4.613  -3.730  -4.863  1.00 42.40    -0.265 OA
HETATM    3  N2    D T1000       5.693  -5.846  -5.027  1.00 39.93    -0.208 NA
ENDROOT
BRANCH   1   4
HETATM    4  C9    D T1000       6.088  -3.903  -6.697  1.00 40.54     0.059 A 
HETATM    5  C8    D T1000       6.900  -4.639  -7.541  1.00 39.10     0.004 A 
HETATM    6  C7    D T1000       7.401  -4.052  -8.722  1.00 41.02    -0.004 A 
HETATM    7  C6    D T1000       7.073  -2.738  -9.098  1.00 41.29    -0.014 A 
HETATM    8  C5    D T1000       6.274  -2.023  -8.249  1.00 41.18     0.038 A 
HETATM    9  C11   D T1000       7.589  -2.117 -10.361  1.00 38.87     0.032 C 
HETATM   10  C10   D T1000       5.733  -2.610  -7.074  1.00 39.13     0.013 A 
BRANCH   8  11
HETATM   11  C4    D T1000       5.807  -0.620  -8.539  1.00 40.03    -0.058 C 
HETATM   12  C3    D T1000       5.438   0.465  -8.819  1.00 38.63    -0.039 C 
BRANCH  12  13
HETATM   13  C2    D T1000       4.912   1.816  -9.130  1.00 38.26     0.145 A 
HETATM   14  N82   D T1000       5.266   3.052  -8.662  1.00 40.77    -0.203 N 
HETATM   15  N81   D T1000       6.201   3.441  -7.737  1.00 38.88    -0.162 NA
HETATM   16  C84   D T1000       4.463   3.958  -9.323  1.00 40.90     0.165 A 
HETATM   17  C83   D T1000       6.358   4.746  -7.477  1.00 41.85     0.121 A 
HETATM   18  C82   D T1000       5.586   5.692  -8.110  1.00 42.85     0.026 A 
HETATM   19  C81   D T1000       4.625   5.330  -9.036  1.00 42.17     0.041 A 
HETATM   20  N1    D T1000       3.632   3.300 -10.152  1.00 37.62    -0.223 NA
HETATM   21  C1    D T1000       3.882   2.002 -10.056  1.00 35.75     0.128 A 
ENDBRANCH  12  13
ENDBRANCH   8  11
ENDBRANCH   1   4
BRANCH   3  22
HETATM   22  C13   D T1000       5.069  -6.524  -3.937  1.00 41.48     0.085 A 
HETATM   23  C14   D T1000       5.684  -7.462  -3.148  1.00 41.52     0.019 A 
HETATM   24  C15   D T1000       4.939  -8.099  -2.144  1.00 43.29    -0.001 A 
HETATM   25  C16   D T1000       3.583  -7.817  -1.949  1.00 41.94     0.004 A 
HETATM   26  C17   D T1000       2.943  -6.887  -2.735  1.00 41.92     0.071 A 
HETATM   27  C18   D T1000       3.686  -6.266  -3.753  1.00 42.85     0.023 A 
BRANCH  25  28
HETATM   28  C20   D T1000       2.908  -8.605  -0.823  1.00 42.14     0.124 C 
BRANCH  28  29
HETATM   29  N3    D T1000       3.958  -9.096   0.114  1.00 43.91    -0.362 N 
HETATM   30  C21   D T1000       4.378  -8.075   1.067  1.00 45.37     0.121 C 
HETATM   31  C22   D T1000       5.561  -8.603   1.847  1.00 47.91     0.121 C 
HETATM   32  N4    D T1000       5.259  -9.869   2.491  1.00 47.69    -0.364 N 
HETATM   33  C23   D T1000       4.053 -10.535   2.085  1.00 46.74     0.121 C 
HETATM   34  C25   D T1000       5.817 -10.101   3.818  1.00 50.05     0.121 C 
HETATM   35  C24   D T1000       3.891 -10.460   0.582  1.00 45.99     0.121 C 
ENDBRANCH  28  29
ENDBRANCH  25  28
BRANCH  26  36
HETATM   36  C19   D T1000       1.475  -6.585  -2.566  1.00 48.32     0.419 C 
HETATM   37  F1    D T1000       0.847  -7.774  -2.587  1.00 50.04    -0.166 F 
HETATM   38  F2    D T1000       0.982  -5.896  -3.611  1.00 52.24    -0.166 F 
HETATM   39  F3    D T1000       1.239  -5.912  -1.425  1.00 44.36    -0.166 F 
ENDBRANCH  26  36
ENDBRANCH   3  22
TORSDOF 7
