REMARK  7 active torsions:
REMARK  status: ('A' for Active; 'I' for Inactive)
REMARK    1  A    between atoms: N3_2  and  C20_12 
REMARK    2  A    between atoms: C4_3  and  C5_4 
REMARK    3  A    between atoms: C13_9  and  N2_29 
REMARK    4  A    between atoms: C17_11  and  C19_33 
REMARK    5  A    between atoms: C20_12  and  C16_31 
REMARK    6  A    between atoms: C2_23  and  C3_24 
REMARK    7  A    between atoms: C9_25  and  C12_27 
REMARK       I    between atoms: C12_27  and  N2_29 
ROOT
HETATM    1  C12   D T1000      -3.644   6.233   2.884  1.00 43.27     0.279 C 
HETATM    2  O1    D T1000      -2.790   5.436   2.460  1.00 42.40    -0.265 OA
HETATM    3  N2    D T1000      -4.734   6.747   2.045  1.00 39.93    -0.208 NA
ENDROOT
BRANCH   1   4
HETATM    4  C9    D T1000      -3.596   6.568   4.367  1.00 40.54     0.059 A 
HETATM    5  C8    D T1000      -4.562   7.308   5.026  1.00 39.10     0.004 A 
HETATM    6  C7    D T1000      -4.466   7.505   6.421  1.00 41.02    -0.004 A 
HETATM    7  C6    D T1000      -3.430   6.940   7.183  1.00 41.29    -0.014 A 
HETATM    8  C5    D T1000      -2.482   6.215   6.514  1.00 41.18     0.038 A 
HETATM    9  C11   D T1000      -3.334   7.131   8.667  1.00 38.87     0.032 C 
HETATM   10  C10   D T1000      -2.581   5.980   5.117  1.00 39.13     0.013 A 
BRANCH   8  11
HETATM   11  C4    D T1000      -1.337   5.517   7.203  1.00 40.03    -0.058 C 
HETATM   12  C3    D T1000      -0.475   4.960   7.784  1.00 38.63    -0.039 C 
BRANCH  12  13
HETATM   13  C2    D T1000       0.610   4.208   8.458  1.00 38.26     0.145 A 
HETATM   14  N82   D T1000       1.948   4.469   8.581  1.00 40.77    -0.203 N 
HETATM   15  N81   D T1000       2.723   5.493   8.100  1.00 38.88    -0.162 NA
HETATM   16  C84   D T1000       2.471   3.444   9.343  1.00 40.90     0.165 A 
HETATM   17  C83   D T1000       4.030   5.515   8.393  1.00 41.85     0.121 A 
HETATM   18  C82   D T1000       4.603   4.520   9.151  1.00 42.85     0.026 A 
HETATM   19  C81   D T1000       3.851   3.466   9.638  1.00 42.17     0.041 A 
HETATM   20  N1    D T1000       1.493   2.576   9.659  1.00 37.62    -0.223 NA
HETATM   21  C1    D T1000       0.356   3.014   9.137  1.00 35.75     0.128 A 
ENDBRANCH  12  13
ENDBRANCH   8  11
ENDBRANCH   1   4
BRANCH   3  22
HETATM   22  C13   D T1000      -4.956   6.427   0.671  1.00 41.48     0.085 A 
HETATM   23  C14   D T1000      -5.468   7.296  -0.258  1.00 41.52     0.019 A 
HETATM   24  C15   D T1000      -5.693   6.836  -1.565  1.00 43.29    -0.001 A 
HETATM   25  C16   D T1000      -5.432   5.511  -1.930  1.00 41.94     0.004 A 
HETATM   26  C17   D T1000      -4.928   4.621  -1.011  1.00 41.92     0.071 A 
HETATM   27  C18   D T1000      -4.723   5.077   0.302  1.00 42.85     0.023 A 
BRANCH  25  28
HETATM   28  C20   D T1000      -5.742   5.163  -3.388  1.00 42.14     0.124 C 
BRANCH  28  29
HETATM   29  N3    D T1000      -5.762   6.421  -4.188  1.00 43.91    -0.362 N 
HETATM   30  C21   D T1000      -4.425   6.862  -4.568  1.00 45.37     0.121 C 
HETATM   31  C22   D T1000      -4.535   8.226  -5.211  1.00 47.91     0.121 C 
HETATM   32  N4    D T1000      -5.455   8.220  -6.335  1.00 47.69    -0.364 N 
HETATM   33  C23   D T1000      -6.292   7.063  -6.484  1.00 46.74     0.121 C 
HETATM   34  C25   D T1000      -5.109   9.033  -7.495  1.00 50.05     0.121 C 
HETATM   35  C24   D T1000      -6.830   6.625  -5.138  1.00 45.99     0.121 C 
ENDBRANCH  28  29
ENDBRANCH  25  28
BRANCH  26  36
HETATM   36  C19   D T1000      -4.664   3.179  -1.369  1.00 48.32     0.419 C 
HETATM   37  F1    D T1000      -5.796   2.725  -1.937  1.00 50.04    -0.166 F 
HETATM   38  F2    D T1000      -4.475   2.418  -0.277  1.00 52.24    -0.166 F 
HETATM   39  F3    D T1000      -3.607   3.063  -2.193  1.00 44.36    -0.166 F 
ENDBRANCH  26  36
ENDBRANCH   3  22
TORSDOF 7
