REMARK  7 active torsions:
REMARK  status: ('A' for Active; 'I' for Inactive)
REMARK    1  A    between atoms: N3_2  and  C20_12 
REMARK    2  A    between atoms: C4_3  and  C5_4 
REMARK    3  A    between atoms: C13_9  and  N2_29 
REMARK    4  A    between atoms: C17_11  and  C19_33 
REMARK    5  A    between atoms: C20_12  and  C16_31 
REMARK    6  A    between atoms: C2_23  and  C3_24 
REMARK    7  A    between atoms: C9_25  and  C12_27 
REMARK       I    between atoms: C12_27  and  N2_29 
ROOT
HETATM    1  C12   D T1000      -5.258   6.233   9.018  1.00 43.27     0.279 C 
HETATM    2  O1    D T1000      -4.998   5.219   8.350  1.00 42.40    -0.265 OA
HETATM    3  N2    D T1000      -5.525   7.541   8.405  1.00 39.93    -0.208 NA
ENDROOT
BRANCH   1   4
HETATM    4  C9    D T1000      -5.417   6.046  10.520  1.00 40.54     0.059 A 
HETATM    5  C8    D T1000      -5.857   7.034  11.382  1.00 39.10     0.004 A 
HETATM    6  C7    D T1000      -6.042   6.740  12.751  1.00 41.02    -0.004 A 
HETATM    7  C6    D T1000      -5.825   5.454  13.273  1.00 41.29    -0.014 A 
HETATM    8  C5    D T1000      -5.385   4.491  12.407  1.00 41.18     0.038 A 
HETATM    9  C11   D T1000      -6.037   5.134  14.722  1.00 38.87     0.032 C 
HETATM   10  C10   D T1000      -5.227   4.760  11.021  1.00 39.13     0.013 A 
BRANCH   8  11
HETATM   11  C4    D T1000      -5.149   3.059  12.813  1.00 40.03    -0.058 C 
HETATM   12  C3    D T1000      -5.008   1.942  13.165  1.00 38.63    -0.039 C 
BRANCH  12  13
HETATM   13  C2    D T1000      -4.846   0.516  13.537  1.00 38.26     0.145 A 
HETATM   14  N82   D T1000      -3.726  -0.230  13.784  1.00 40.77    -0.203 N 
HETATM   15  N81   D T1000      -2.393   0.089  13.743  1.00 38.88    -0.162 NA
HETATM   16  C84   D T1000      -4.172  -1.492  14.120  1.00 40.90     0.165 A 
HETATM   17  C83   D T1000      -1.488  -0.849  14.058  1.00 41.85     0.121 A 
HETATM   18  C82   D T1000      -1.878  -2.121  14.402  1.00 42.85     0.026 A 
HETATM   19  C81   D T1000      -3.214  -2.478  14.438  1.00 42.17     0.041 A 
HETATM   20  N1    D T1000      -5.515  -1.524  14.061  1.00 37.62    -0.223 NA
HETATM   21  C1    D T1000      -5.950  -0.321  13.711  1.00 35.75     0.128 A 
ENDBRANCH  12  13
ENDBRANCH   8  11
ENDBRANCH   1   4
BRANCH   3  22
HETATM   22  C13   D T1000      -5.515   7.827   7.006  1.00 41.48     0.085 A 
HETATM   23  C14   D T1000      -5.112   9.017   6.457  1.00 41.52     0.019 A 
HETATM   24  C15   D T1000      -5.208   9.191   5.068  1.00 43.29    -0.001 A 
HETATM   25  C16   D T1000      -5.729   8.191   4.240  1.00 41.94     0.004 A 
HETATM   26  C17   D T1000      -6.148   6.994   4.771  1.00 41.92     0.071 A 
HETATM   27  C18   D T1000      -6.070   6.830   6.164  1.00 42.85     0.023 A 
BRANCH  25  28
HETATM   28  C20   D T1000      -5.779   8.540   2.750  1.00 42.14     0.124 C 
BRANCH  28  29
HETATM   29  N3    D T1000      -4.807   9.636   2.480  1.00 43.91    -0.362 N 
HETATM   30  C21   D T1000      -3.441   9.148   2.329  1.00 45.37     0.121 C 
HETATM   31  C22   D T1000      -2.512  10.337   2.242  1.00 47.91     0.121 C 
HETATM   32  N4    D T1000      -2.895  11.244   1.175  1.00 47.69    -0.364 N 
HETATM   33  C23   D T1000      -4.187  11.039   0.580  1.00 46.74     0.121 C 
HETATM   34  C25   D T1000      -1.827  11.881   0.414  1.00 50.05     0.121 C 
HETATM   35  C24   D T1000      -5.217  10.742   1.648  1.00 45.99     0.121 C 
ENDBRANCH  28  29
ENDBRANCH  25  28
BRANCH  26  36
HETATM   36  C19   D T1000      -6.740   5.909   3.904  1.00 48.32     0.419 C 
HETATM   37  F1    D T1000      -7.706   6.501   3.178  1.00 50.04    -0.166 F 
HETATM   38  F2    D T1000      -7.362   4.968   4.636  1.00 52.24    -0.166 F 
HETATM   39  F3    D T1000      -5.805   5.337   3.125  1.00 44.36    -0.166 F 
ENDBRANCH  26  36
ENDBRANCH   3  22
TORSDOF 7
