REMARK  7 active torsions:
REMARK  status: ('A' for Active; 'I' for Inactive)
REMARK    1  A    between atoms: N3_2  and  C20_12 
REMARK    2  A    between atoms: C4_3  and  C5_4 
REMARK    3  A    between atoms: C13_9  and  N2_29 
REMARK    4  A    between atoms: C17_11  and  C19_33 
REMARK    5  A    between atoms: C20_12  and  C16_31 
REMARK    6  A    between atoms: C2_23  and  C3_24 
REMARK    7  A    between atoms: C9_25  and  C12_27 
REMARK       I    between atoms: C12_27  and  N2_29 
ROOT
HETATM    1  C12   D T1000      -2.112  12.383  -1.983  1.00 43.27     0.279 C 
HETATM    2  O1    D T1000      -1.357  11.516  -2.454  1.00 42.40    -0.265 OA
HETATM    3  N2    D T1000      -3.353  12.801  -2.649  1.00 39.93    -0.208 NA
ENDROOT
BRANCH   1   4
HETATM    4  C9    D T1000      -1.768  12.920  -0.601  1.00 40.54     0.059 A 
HETATM    5  C8    D T1000      -2.585  13.765   0.128  1.00 39.10     0.004 A 
HETATM    6  C7    D T1000      -2.210  14.151   1.433  1.00 41.02    -0.004 A 
HETATM    7  C6    D T1000      -1.038  13.673   2.043  1.00 41.29    -0.014 A 
HETATM    8  C5    D T1000      -0.240  12.842   1.306  1.00 41.18     0.038 A 
HETATM    9  C11   D T1000      -0.645  14.065   3.436  1.00 38.87     0.032 C 
HETATM   10  C10   D T1000      -0.619  12.417   0.004  1.00 39.13     0.013 A 
BRANCH   8  11
HETATM   11  C4    D T1000       1.024  12.220   1.841  1.00 40.03    -0.058 C 
HETATM   12  C3    D T1000       1.989  11.730   2.309  1.00 38.63    -0.039 C 
BRANCH  12  13
HETATM   13  C2    D T1000       3.193  11.054   2.850  1.00 38.26     0.145 A 
HETATM   14  N82   D T1000       4.526  11.298   2.663  1.00 40.77    -0.203 N 
HETATM   15  N81   D T1000       5.182  12.228   1.897  1.00 38.88    -0.162 NA
HETATM   16  C84   D T1000       5.198  10.377   3.441  1.00 40.90     0.165 A 
HETATM   17  C83   D T1000       6.521  12.261   1.916  1.00 41.85     0.121 A 
HETATM   18  C82   D T1000       7.241  11.368   2.675  1.00 42.85     0.026 A 
HETATM   19  C81   D T1000       6.609  10.409   3.446  1.00 42.17     0.041 A 
HETATM   20  N1    D T1000       4.310   9.584   4.065  1.00 37.62    -0.223 NA
HETATM   21  C1    D T1000       3.088   9.971   3.726  1.00 35.75     0.128 A 
ENDBRANCH  12  13
ENDBRANCH   8  11
ENDBRANCH   1   4
BRANCH   3  22
HETATM   22  C13   D T1000      -3.846  12.299  -3.892  1.00 41.48     0.085 A 
HETATM   23  C14   D T1000      -4.540  13.042  -4.811  1.00 41.52     0.019 A 
HETATM   24  C15   D T1000      -5.022  12.411  -5.968  1.00 43.29    -0.001 A 
HETATM   25  C16   D T1000      -4.833  11.043  -6.189  1.00 41.94     0.004 A 
HETATM   26  C17   D T1000      -4.148  10.277  -5.275  1.00 41.92     0.071 A 
HETATM   27  C18   D T1000      -3.685  10.906  -4.108  1.00 42.85     0.023 A 
BRANCH  25  28
HETATM   28  C20   D T1000      -5.430  10.504  -7.492  1.00 42.14     0.124 C 
BRANCH  28  29
HETATM   29  N3    D T1000      -5.618  11.638  -8.439  1.00 43.91    -0.362 N 
HETATM   30  C21   D T1000      -4.388  11.993  -9.139  1.00 45.37     0.121 C 
HETATM   31  C22   D T1000      -4.634  13.257  -9.932  1.00 47.91     0.121 C 
HETATM   32  N4    D T1000      -5.762  13.116 -10.835  1.00 47.69    -0.364 N 
HETATM   33  C23   D T1000      -6.605  11.968 -10.649  1.00 46.74     0.121 C 
HETATM   34  C25   D T1000      -5.662  13.752 -12.143  1.00 50.05     0.121 C 
HETATM   35  C24   D T1000      -6.857  11.734  -9.175  1.00 45.99     0.121 C 
ENDBRANCH  28  29
ENDBRANCH  25  28
BRANCH  26  36
HETATM   36  C19   D T1000      -3.954   8.794  -5.474  1.00 48.32     0.419 C 
HETATM   37  F1    D T1000      -5.174   8.292  -5.733  1.00 50.04    -0.166 F 
HETATM   38  F2    D T1000      -3.543   8.188  -4.346  1.00 52.24    -0.166 F 
HETATM   39  F3    D T1000      -3.084   8.541  -6.469  1.00 44.36    -0.166 F 
ENDBRANCH  26  36
ENDBRANCH   3  22
TORSDOF 7
