REMARK  7 active torsions:
REMARK  status: ('A' for Active; 'I' for Inactive)
REMARK    1  A    between atoms: N3_2  and  C20_12 
REMARK    2  A    between atoms: C4_3  and  C5_4 
REMARK    3  A    between atoms: C13_9  and  N2_29 
REMARK    4  A    between atoms: C17_11  and  C19_33 
REMARK    5  A    between atoms: C20_12  and  C16_31 
REMARK    6  A    between atoms: C2_23  and  C3_24 
REMARK    7  A    between atoms: C9_25  and  C12_27 
REMARK       I    between atoms: C12_27  and  N2_29 
ROOT
HETATM    1  C12   D T1000       2.692  -3.675  -8.229  1.00 43.27     0.279 C 
HETATM    2  O1    D T1000       2.413  -2.986  -7.234  1.00 42.40    -0.265 OA
HETATM    3  N2    D T1000       1.890  -4.835  -8.641  1.00 39.93    -0.208 NA
ENDROOT
BRANCH   1   4
HETATM    4  C9    D T1000       3.843  -3.193  -9.101  1.00 40.54     0.059 A 
HETATM    5  C8    D T1000       4.177  -3.752 -10.321  1.00 39.10     0.004 A 
HETATM    6  C7    D T1000       5.218  -3.187 -11.090  1.00 41.02    -0.004 A 
HETATM    7  C6    D T1000       5.914  -2.040 -10.673  1.00 41.29    -0.014 A 
HETATM    8  C5    D T1000       5.573  -1.504  -9.461  1.00 41.18     0.038 A 
HETATM    9  C11   D T1000       7.007  -1.426 -11.495  1.00 38.87     0.032 C 
HETATM   10  C10   D T1000       4.506  -2.040  -8.691  1.00 39.13     0.013 A 
BRANCH   8  11
HETATM   11  C4    D T1000       6.202  -0.254  -8.903  1.00 40.03    -0.058 C 
HETATM   12  C3    D T1000       6.698   0.745  -8.518  1.00 38.63    -0.039 C 
BRANCH  12  13
HETATM   13  C2    D T1000       7.257   2.014  -7.995  1.00 38.26     0.145 A 
HETATM   14  N82   D T1000       8.183   2.258  -7.019  1.00 40.77    -0.203 N 
HETATM   15  N81   D T1000       8.875   1.413  -6.189  1.00 38.88    -0.162 NA
HETATM   16  C84   D T1000       8.347   3.628  -6.977  1.00 40.90     0.165 A 
HETATM   17  C83   D T1000       9.756   1.927  -5.320  1.00 41.85     0.121 A 
HETATM   18  C82   D T1000       9.960   3.285  -5.239  1.00 42.85     0.026 A 
HETATM   19  C81   D T1000       9.267   4.165  -6.051  1.00 42.17     0.041 A 
HETATM   20  N1    D T1000       7.535   4.204  -7.881  1.00 37.62    -0.223 NA
HETATM   21  C1    D T1000       6.864   3.251  -8.513  1.00 35.75     0.128 A 
ENDBRANCH  12  13
ENDBRANCH   8  11
ENDBRANCH   1   4
BRANCH   3  22
HETATM   22  C13   D T1000       0.726  -5.326  -7.976  1.00 41.48     0.085 A 
HETATM   23  C14   D T1000       0.373  -6.649  -7.897  1.00 41.52     0.019 A 
HETATM   24  C15   D T1000      -0.831  -6.994  -7.264  1.00 43.29    -0.001 A 
HETATM   25  C16   D T1000      -1.686  -6.020  -6.738  1.00 41.94     0.004 A 
HETATM   26  C17   D T1000      -1.357  -4.687  -6.814  1.00 41.92     0.071 A 
HETATM   27  C18   D T1000      -0.161  -4.343  -7.467  1.00 42.85     0.023 A 
BRANCH  25  28
HETATM   28  C20   D T1000      -2.966  -6.557  -6.091  1.00 42.14     0.124 C 
BRANCH  28  29
HETATM   29  N3    D T1000      -2.756  -7.986  -5.726  1.00 43.91    -0.362 N 
HETATM   30  C21   D T1000      -2.041  -8.142  -4.463  1.00 45.37     0.121 C 
HETATM   31  C22   D T1000      -1.718  -9.606  -4.270  1.00 47.91     0.121 C 
HETATM   32  N4    D T1000      -2.909 -10.434  -4.337  1.00 47.69    -0.364 N 
HETATM   33  C23   D T1000      -4.107  -9.813  -4.830  1.00 46.74     0.121 C 
HETATM   34  C25   D T1000      -2.991 -11.573  -3.430  1.00 50.05     0.121 C 
HETATM   35  C24   D T1000      -3.793  -8.943  -6.028  1.00 45.99     0.121 C 
ENDBRANCH  28  29
ENDBRANCH  25  28
BRANCH  26  36
HETATM   36  C19   D T1000      -2.274  -3.614  -6.281  1.00 48.32     0.419 C 
HETATM   37  F1    D T1000      -3.484  -3.862  -6.814  1.00 50.04    -0.166 F 
HETATM   38  F2    D T1000      -1.926  -2.393  -6.723  1.00 52.24    -0.166 F 
HETATM   39  F3    D T1000      -2.306  -3.619  -4.936  1.00 44.36    -0.166 F 
ENDBRANCH  26  36
ENDBRANCH   3  22
TORSDOF 7
