REMARK  3 active torsions:
REMARK  status: ('A' for Active; 'I' for Inactive)
REMARK    1  A    between atoms: C2_2  and  O11_20 
REMARK    2  A    between atoms: C10_10  and  N14_11 
REMARK    3  A    between atoms: N14_11  and  C15_12 
ROOT
HETATM    1  C1    D T9001       6.867   7.851  -3.880  1.00 83.47     0.092 A 
HETATM    2  C2    D T9001       6.679   9.266  -4.017  1.00 83.68     0.109 A 
HETATM    3  C3    D T9001       5.999   9.787  -5.168  1.00 82.47     0.044 A 
HETATM    4  C4    D T9001       5.499   8.960  -6.183  1.00 82.50     0.088 A 
HETATM    5  C5    D T9001       5.680   7.531  -6.065  1.00 84.12     0.055 A 
HETATM    6  C6    D T9001       6.367   6.999  -4.905  1.00 83.53     0.021 A 
HETATM    7  N7    D T9001       4.866   9.545  -7.234  1.00 81.78    -0.224 NA
HETATM    8  C8    D T9001       4.386   8.725  -8.204  1.00 83.59     0.200 A 
HETATM    9  N9    D T9001       4.485   7.375  -8.221  1.00 84.30    -0.205 NA
HETATM   10  C10   D T9001       5.132   6.763  -7.153  1.00 85.59     0.166 A 
HETATM   11  N13   D T9001       7.531   7.297  -2.760  1.00 82.67    -0.099 NA
ENDROOT
BRANCH  10  12
HETATM   12  N14   D T9001       5.257   5.328  -7.139  1.00 86.44    -0.227 NA
BRANCH  12  13
HETATM   13  C15   D T9001       5.071   4.448  -8.243  1.00 87.38     0.084 A 
HETATM   14  C16   D T9001       5.615   4.743  -9.536  1.00 88.13     0.033 A 
HETATM   15  C17   D T9001       5.420   3.868 -10.629  1.00 88.88     0.087 A 
HETATM   16  C18   D T9001       4.670   2.677 -10.444  1.00 88.55     0.151 A 
HETATM   17 CL     D T9001       6.097   4.279 -12.169  1.00 89.26    -0.080 Cl
HETATM   18  C19   D T9001       4.119   2.355  -9.171  1.00 87.62     0.032 A 
HETATM   19  F21   D T9001       4.472   1.836 -11.474  1.00 88.92    -0.203 F 
HETATM   20  C20   D T9001       4.317   3.238  -8.074  1.00 87.82     0.021 A 
ENDBRANCH  12  13
ENDBRANCH  10  12
BRANCH   2  21
HETATM   21  O11   D T9001       7.191  10.038  -2.978  1.00 85.44    -0.327 OA
HETATM   22  C12   D T9001       7.677  11.349  -3.288  1.00 84.41     0.181 C 
ENDBRANCH   2  21
TORSDOF 3
