REMARK  3 active torsions:
REMARK  status: ('A' for Active; 'I' for Inactive)
REMARK    1  A    between atoms: C2_2  and  O11_20 
REMARK    2  A    between atoms: C10_10  and  N14_11 
REMARK    3  A    between atoms: N14_11  and  C15_12 
ROOT
HETATM    1  C1    D T9001       1.491 -11.555  -0.406  1.00 83.47     0.092 A 
HETATM    2  C2    D T9001       0.628 -12.597  -0.883  1.00 83.68     0.109 A 
HETATM    3  C3    D T9001      -0.743 -12.304  -1.189  1.00 82.47     0.044 A 
HETATM    4  C4    D T9001      -1.287 -11.021  -1.040  1.00 82.50     0.088 A 
HETATM    5  C5    D T9001      -0.436  -9.958  -0.559  1.00 84.12     0.055 A 
HETATM    6  C6    D T9001       0.950 -10.248  -0.248  1.00 83.53     0.021 A 
HETATM    7  N7    D T9001      -2.597 -10.839  -1.358  1.00 81.78    -0.224 NA
HETATM    8  C8    D T9001      -3.103  -9.588  -1.211  1.00 83.59     0.200 A 
HETATM    9  N9    D T9001      -2.421  -8.504  -0.771  1.00 84.30    -0.205 NA
HETATM   10  C10   D T9001      -1.081  -8.676  -0.440  1.00 85.59     0.166 A 
HETATM   11  N13   D T9001       2.849 -11.803  -0.096  1.00 82.67    -0.099 NA
ENDROOT
BRANCH  10  12
HETATM   12  N14   D T9001      -0.326  -7.544   0.033  1.00 86.44    -0.227 NA
BRANCH  12  13
HETATM   13  C15   D T9001      -0.852  -6.310   0.507  1.00 87.38     0.084 A 
HETATM   14  C16   D T9001      -1.970  -6.267   1.403  1.00 88.13     0.033 A 
HETATM   15  C17   D T9001      -2.492  -5.037   1.865  1.00 88.88     0.087 A 
HETATM   16  C18   D T9001      -1.900  -3.822   1.431  1.00 88.55     0.151 A 
HETATM   17 CL     D T9001      -3.847  -5.047   2.942  1.00 89.26    -0.080 Cl
HETATM   18  C19   D T9001      -0.786  -3.831   0.544  1.00 87.62     0.032 A 
HETATM   19  F21   D T9001      -2.386  -2.643   1.858  1.00 88.92    -0.203 F 
HETATM   20  C20   D T9001      -0.265  -5.071   0.081  1.00 87.82     0.021 A 
ENDBRANCH  12  13
ENDBRANCH  10  12
BRANCH   2  21
HETATM   21  O11   D T9001       1.223 -13.849  -1.016  1.00 85.44    -0.327 OA
HETATM   22  C12   D T9001       0.410 -15.008  -0.802  1.00 84.41     0.181 C 
ENDBRANCH   2  21
TORSDOF 3
