REMARK  3 active torsions:
REMARK  status: ('A' for Active; 'I' for Inactive)
REMARK    1  A    between atoms: C2_2  and  O11_20 
REMARK    2  A    between atoms: C10_10  and  N14_11 
REMARK    3  A    between atoms: N14_11  and  C15_12 
ROOT
HETATM    1  C1    D T9001      -0.365  -2.184  10.188  1.00 83.47     0.092 A 
HETATM    2  C2    D T9001      -0.458  -3.608  10.328  1.00 83.68     0.109 A 
HETATM    3  C3    D T9001      -1.559  -4.313   9.738  1.00 82.47     0.044 A 
HETATM    4  C4    D T9001      -2.567  -3.660   9.016  1.00 82.50     0.088 A 
HETATM    5  C5    D T9001      -2.495  -2.224   8.865  1.00 84.12     0.055 A 
HETATM    6  C6    D T9001      -1.385  -1.507   9.459  1.00 83.53     0.021 A 
HETATM    7  N7    D T9001      -3.571  -4.413   8.491  1.00 81.78    -0.224 NA
HETATM    8  C8    D T9001      -4.535  -3.761   7.792  1.00 83.59     0.200 A 
HETATM    9  N9    D T9001      -4.590  -2.426   7.574  1.00 84.30    -0.205 NA
HETATM   10  C10   D T9001      -3.572  -1.643   8.107  1.00 85.59     0.166 A 
HETATM   11  N13   D T9001       0.706  -1.452  10.753  1.00 82.67    -0.099 NA
ENDROOT
BRANCH  10  12
HETATM   12  N14   D T9001      -3.600  -0.218   7.896  1.00 86.44    -0.227 NA
BRANCH  12  13
HETATM   13  C15   D T9001      -4.714   0.554   7.463  1.00 87.38     0.084 A 
HETATM   14  C16   D T9001      -6.026   0.347   8.003  1.00 88.13     0.033 A 
HETATM   15  C17   D T9001      -7.129   1.113   7.563  1.00 88.88     0.087 A 
HETATM   16  C18   D T9001      -6.936   2.105   6.566  1.00 88.55     0.151 A 
HETATM   17 CL     D T9001      -8.690   0.815   8.249  1.00 89.26    -0.080 Cl
HETATM   18  C19   D T9001      -5.645   2.337   6.011  1.00 87.62     0.032 A 
HETATM   19  F21   D T9001      -7.974   2.841   6.133  1.00 88.92    -0.203 F 
HETATM   20  C20   D T9001      -4.537   1.563   6.456  1.00 87.82     0.021 A 
ENDBRANCH  12  13
ENDBRANCH  10  12
BRANCH   2  21
HETATM   21  O11   D T9001       0.573  -4.204  11.050  1.00 85.44    -0.327 OA
HETATM   22  C12   D T9001       0.271  -5.377  11.813  1.00 84.41     0.181 C 
ENDBRANCH   2  21
TORSDOF 3
