REMARK  3 active torsions:
REMARK  status: ('A' for Active; 'I' for Inactive)
REMARK    1  A    between atoms: C2_2  and  O11_20 
REMARK    2  A    between atoms: C10_10  and  N14_11 
REMARK    3  A    between atoms: N14_11  and  C15_12 
ROOT
HETATM    1  C1    D T9001     -12.506  -0.053  -6.571  1.00 83.47     0.092 A 
HETATM    2  C2    D T9001     -11.972  -1.155  -7.317  1.00 83.68     0.109 A 
HETATM    3  C3    D T9001     -10.564  -1.222  -7.584  1.00 82.47     0.044 A 
HETATM    4  C4    D T9001      -9.669  -0.239  -7.139  1.00 82.50     0.088 A 
HETATM    5  C5    D T9001     -10.186   0.882  -6.388  1.00 84.12     0.055 A 
HETATM    6  C6    D T9001     -11.608   0.954  -6.116  1.00 83.53     0.021 A 
HETATM    7  N7    D T9001      -8.351  -0.389  -7.439  1.00 81.78    -0.224 NA
HETATM    8  C8    D T9001      -7.501   0.572  -6.995  1.00 83.59     0.200 A 
HETATM    9  N9    D T9001      -7.849   1.671  -6.284  1.00 84.30    -0.205 NA
HETATM   10  C10   D T9001      -9.194   1.838  -5.972  1.00 85.59     0.166 A 
HETATM   11  N13   D T9001     -13.888   0.048  -6.285  1.00 82.67    -0.099 NA
ENDROOT
BRANCH  10  12
HETATM   12  N14   D T9001      -9.599   2.997  -5.218  1.00 86.44    -0.227 NA
BRANCH  12  13
HETATM   13  C15   D T9001      -8.836   4.178  -5.001  1.00 87.38     0.084 A 
HETATM   14  C16   D T9001      -8.105   4.804  -6.063  1.00 88.13     0.033 A 
HETATM   15  C17   D T9001      -7.344   5.974  -5.839  1.00 88.88     0.087 A 
HETATM   16  C18   D T9001      -7.300   6.539  -4.537  1.00 88.55     0.151 A 
HETATM   17 CL     D T9001      -6.478   6.683  -7.159  1.00 89.26    -0.080 Cl
HETATM   18  C19   D T9001      -8.018   5.942  -3.461  1.00 87.62     0.032 A 
HETATM   19  F21   D T9001      -6.579   7.649  -4.305  1.00 88.92    -0.203 F 
HETATM   20  C20   D T9001      -8.782   4.764  -3.691  1.00 87.82     0.021 A 
ENDBRANCH  12  13
ENDBRANCH  10  12
BRANCH   2  21
HETATM   21  O11   D T9001     -12.905  -2.103  -7.729  1.00 85.44    -0.327 OA
HETATM   22  C12   D T9001     -12.667  -2.793  -8.961  1.00 84.41     0.181 C 
ENDBRANCH   2  21
TORSDOF 3
