REMARK  3 active torsions:
REMARK  status: ('A' for Active; 'I' for Inactive)
REMARK    1  A    between atoms: C2_2  and  O11_20 
REMARK    2  A    between atoms: C10_10  and  N14_11 
REMARK    3  A    between atoms: N14_11  and  C15_12 
ROOT
HETATM    1  C1    D T9001       5.834   6.166  -8.089  1.00 83.47     0.092 A 
HETATM    2  C2    D T9001       4.883   6.694  -9.024  1.00 83.68     0.109 A 
HETATM    3  C3    D T9001       4.058   5.799  -9.785  1.00 82.47     0.044 A 
HETATM    4  C4    D T9001       4.141   4.407  -9.652  1.00 82.50     0.088 A 
HETATM    5  C5    D T9001       5.095   3.854  -8.717  1.00 84.12     0.055 A 
HETATM    6  C6    D T9001       5.930   4.753  -7.946  1.00 83.53     0.021 A 
HETATM    7  N7    D T9001       3.317   3.639 -10.415  1.00 81.78    -0.224 NA
HETATM    8  C8    D T9001       3.410   2.293 -10.267  1.00 83.59     0.200 A 
HETATM    9  N9    D T9001       4.256   1.644  -9.432  1.00 84.30    -0.205 NA
HETATM   10  C10   D T9001       5.106   2.416  -8.648  1.00 85.59     0.166 A 
HETATM   11  N13   D T9001       6.663   7.015  -7.319  1.00 82.67    -0.099 NA
ENDROOT
BRANCH  10  12
HETATM   12  N14   D T9001       6.020   1.758  -7.749  1.00 86.44    -0.227 NA
BRANCH  12  13
HETATM   13  C15   D T9001       6.393   0.385  -7.772  1.00 87.38     0.084 A 
HETATM   14  C16   D T9001       6.710  -0.285  -8.999  1.00 88.13     0.033 A 
HETATM   15  C17   D T9001       7.073  -1.651  -9.015  1.00 88.88     0.087 A 
HETATM   16  C18   D T9001       7.122  -2.374  -7.793  1.00 88.55     0.151 A 
HETATM   17 CL     D T9001       7.441  -2.409 -10.527  1.00 89.26    -0.080 Cl
HETATM   18  C19   D T9001       6.816  -1.736  -6.557  1.00 87.62     0.032 A 
HETATM   19  F21   D T9001       7.462  -3.674  -7.791  1.00 88.92    -0.203 F 
HETATM   20  C20   D T9001       6.450  -0.361  -6.546  1.00 87.82     0.021 A 
ENDBRANCH  12  13
ENDBRANCH  10  12
BRANCH   2  21
HETATM   21  O11   D T9001       4.841   8.083  -9.111  1.00 85.44    -0.327 OA
HETATM   22  C12   D T9001       4.509   8.669 -10.375  1.00 84.41     0.181 C 
ENDBRANCH   2  21
TORSDOF 3
