REMARK  3 active torsions:
REMARK  status: ('A' for Active; 'I' for Inactive)
REMARK    1  A    between atoms: C2_2  and  O11_20 
REMARK    2  A    between atoms: C10_10  and  N14_11 
REMARK    3  A    between atoms: N14_11  and  C15_12 
ROOT
HETATM    1  C1    D T9001     -49.153   1.659  34.405  1.00 83.47     0.092 A 
HETATM    2  C2    D T9001     -49.330   1.338  35.791  1.00 83.68     0.109 A 
HETATM    3  C3    D T9001     -48.685   0.181  36.343  1.00 82.47     0.044 A 
HETATM    4  C4    D T9001     -47.875  -0.665  35.574  1.00 82.50     0.088 A 
HETATM    5  C5    D T9001     -47.686  -0.361  34.174  1.00 84.12     0.055 A 
HETATM    6  C6    D T9001     -48.335   0.806  33.611  1.00 83.53     0.021 A 
HETATM    7  N7    D T9001     -47.303  -1.737  36.186  1.00 81.78    -0.224 NA
HETATM    8  C8    D T9001     -46.519  -2.541  35.423  1.00 83.59     0.200 A 
HETATM    9  N9    D T9001     -46.257  -2.374  34.105  1.00 84.30    -0.205 NA
HETATM   10  C10   D T9001     -46.837  -1.283  33.466  1.00 85.59     0.166 A 
HETATM   11  N13   D T9001     -49.770   2.792  33.823  1.00 82.67    -0.099 NA
ENDROOT
BRANCH  10  12
HETATM   12  N14   D T9001     -46.582  -1.077  32.063  1.00 86.44    -0.227 NA
BRANCH  12  13
HETATM   13  C15   D T9001     -46.048  -2.027  31.148  1.00 87.38     0.084 A 
HETATM   14  C16   D T9001     -46.501  -3.387  31.130  1.00 88.13     0.033 A 
HETATM   15  C17   D T9001     -45.962  -4.327  30.223  1.00 88.88     0.087 A 
HETATM   16  C18   D T9001     -44.951  -3.918  29.314  1.00 88.55     0.151 A 
HETATM   17 CL     D T9001     -46.545  -5.957  30.251  1.00 89.26    -0.080 Cl
HETATM   18  C19   D T9001     -44.481  -2.574  29.304  1.00 87.62     0.032 A 
HETATM   19  F21   D T9001     -44.425  -4.800  28.446  1.00 88.92    -0.203 F 
HETATM   20  C20   D T9001     -45.026  -1.631  30.220  1.00 87.82     0.021 A 
ENDBRANCH  12  13
ENDBRANCH  10  12
BRANCH   2  21
HETATM   21  O11   D T9001     -50.140   2.215  36.507  1.00 85.44    -0.327 OA
HETATM   22  C12   D T9001     -50.915   1.686  37.589  1.00 84.41     0.181 C 
ENDBRANCH   2  21
TORSDOF 3
