REMARK  3 active torsions:
REMARK  status: ('A' for Active; 'I' for Inactive)
REMARK    1  A    between atoms: C2_2  and  O11_20 
REMARK    2  A    between atoms: C10_10  and  N14_11 
REMARK    3  A    between atoms: N14_11  and  C15_12 
ROOT
HETATM    1  C1    D T9001      -7.748  12.326 -26.601  1.00 83.47     0.092 A 
HETATM    2  C2    D T9001      -6.851  11.649 -27.491  1.00 83.68     0.109 A 
HETATM    3  C3    D T9001      -5.482  11.448 -27.110  1.00 82.47     0.044 A 
HETATM    4  C4    D T9001      -4.973  11.893 -25.883  1.00 82.50     0.088 A 
HETATM    5  C5    D T9001      -5.858  12.581 -24.972  1.00 84.12     0.055 A 
HETATM    6  C6    D T9001      -7.242  12.786 -25.352  1.00 83.53     0.021 A 
HETATM    7  N7    D T9001      -3.662  11.655 -25.608  1.00 81.78    -0.224 NA
HETATM    8  C8    D T9001      -3.190  12.091 -24.412  1.00 83.59     0.200 A 
HETATM    9  N9    D T9001      -3.906  12.746 -23.469  1.00 84.30    -0.205 NA
HETATM   10  C10   D T9001      -5.247  12.998 -23.737  1.00 85.59     0.166 A 
HETATM   11  N13   D T9001      -9.105  12.542 -26.939  1.00 82.67    -0.099 NA
ENDROOT
BRANCH  10  12
HETATM   12  N14   D T9001      -6.039  13.696 -22.756  1.00 86.44    -0.227 NA
BRANCH  12  13
HETATM   13  C15   D T9001      -5.552  14.447 -21.649  1.00 87.38     0.084 A 
HETATM   14  C16   D T9001      -4.451  15.355 -21.786  1.00 88.13     0.033 A 
HETATM   15  C17   D T9001      -3.968  16.093 -20.682  1.00 88.88     0.087 A 
HETATM   16  C18   D T9001      -4.582  15.929 -19.412  1.00 88.55     0.151 A 
HETATM   17 CL     D T9001      -2.633  17.172 -20.906  1.00 89.26    -0.080 Cl
HETATM   18  C19   D T9001      -5.679  15.037 -19.243  1.00 87.62     0.032 A 
HETATM   19  F21   D T9001      -4.133  16.620 -18.350  1.00 88.92    -0.203 F 
HETATM   20  C20   D T9001      -6.161  14.295 -20.358  1.00 87.82     0.021 A 
ENDBRANCH  12  13
ENDBRANCH  10  12
BRANCH   2  21
HETATM   21  O11   D T9001      -7.412  11.224 -28.693  1.00 85.44    -0.327 OA
HETATM   22  C12   D T9001      -6.575  11.192 -29.854  1.00 84.41     0.181 C 
ENDBRANCH   2  21
TORSDOF 3
