REMARK  3 active torsions:
REMARK  status: ('A' for Active; 'I' for Inactive)
REMARK    1  A    between atoms: C2_2  and  O11_20 
REMARK    2  A    between atoms: C10_10  and  N14_11 
REMARK    3  A    between atoms: N14_11  and  C15_12 
ROOT
HETATM    1  C1    D T9001       5.064  13.334   1.624  1.00 83.47     0.092 A 
HETATM    2  C2    D T9001       5.479  12.476   2.695  1.00 83.68     0.109 A 
HETATM    3  C3    D T9001       4.537  11.574   3.293  1.00 82.47     0.044 A 
HETATM    4  C4    D T9001       3.203  11.493   2.870  1.00 82.50     0.088 A 
HETATM    5  C5    D T9001       2.763  12.352   1.794  1.00 84.12     0.055 A 
HETATM    6  C6    D T9001       3.711  13.264   1.186  1.00 83.53     0.021 A 
HETATM    7  N7    D T9001       2.384  10.607   3.496  1.00 81.78    -0.224 NA
HETATM    8  C8    D T9001       1.097  10.542   3.067  1.00 83.59     0.200 A 
HETATM    9  N9    D T9001       0.554  11.285   2.074  1.00 84.30    -0.205 NA
HETATM   10  C10   D T9001       1.380  12.197   1.426  1.00 85.59     0.166 A 
HETATM   11  N13   D T9001       5.963  14.235   1.006  1.00 82.67    -0.099 NA
ENDROOT
BRANCH  10  12
HETATM   12  N14   D T9001       0.834  13.005   0.366  1.00 86.44    -0.227 NA
BRANCH  12  13
HETATM   13  C15   D T9001      -0.544  13.219   0.084  1.00 87.38     0.084 A 
HETATM   14  C16   D T9001      -1.489  13.489   1.127  1.00 88.13     0.033 A 
HETATM   15  C17   D T9001      -2.858  13.694   0.841  1.00 88.88     0.087 A 
HETATM   16  C18   D T9001      -3.307  13.628  -0.505  1.00 88.55     0.151 A 
HETATM   17 CL     D T9001      -3.955  14.012   2.142  1.00 89.26    -0.080 Cl
HETATM   18  C19   D T9001      -2.392  13.363  -1.565  1.00 87.62     0.032 A 
HETATM   19  F21   D T9001      -4.605  13.816  -0.795  1.00 88.92    -0.203 F 
HETATM   20  C20   D T9001      -1.015  13.157  -1.271  1.00 87.82     0.021 A 
ENDBRANCH  12  13
ENDBRANCH  10  12
BRANCH   2  21
HETATM   21  O11   D T9001       6.814  12.595   3.071  1.00 85.44    -0.327 OA
HETATM   22  C12   D T9001       7.152  12.366   4.444  1.00 84.41     0.181 C 
ENDBRANCH   2  21
TORSDOF 3
