REMARK  3 active torsions:
REMARK  status: ('A' for Active; 'I' for Inactive)
REMARK    1  A    between atoms: C2_2  and  O11_20 
REMARK    2  A    between atoms: C10_10  and  N14_11 
REMARK    3  A    between atoms: N14_11  and  C15_12 
ROOT
HETATM    1  C1    D T9001     -11.514  -7.061   9.077  1.00 83.47     0.092 A 
HETATM    2  C2    D T9001     -12.683  -7.824   8.745  1.00 83.68     0.109 A 
HETATM    3  C3    D T9001     -13.951  -7.166   8.613  1.00 82.47     0.044 A 
HETATM    4  C4    D T9001     -14.102  -5.785   8.797  1.00 82.50     0.088 A 
HETATM    5  C5    D T9001     -12.938  -4.998   9.135  1.00 84.12     0.055 A 
HETATM    6  C6    D T9001     -11.654  -5.657   9.269  1.00 83.53     0.021 A 
HETATM    7  N7    D T9001     -15.344  -5.250   8.649  1.00 81.78    -0.224 NA
HETATM    8  C8    D T9001     -15.467  -3.910   8.827  1.00 83.59     0.200 A 
HETATM    9  N9    D T9001     -14.465  -3.057   9.144  1.00 84.30    -0.205 NA
HETATM   10  C10   D T9001     -13.190  -3.590   9.301  1.00 85.59     0.166 A 
HETATM   11  N13   D T9001     -10.245  -7.672   9.214  1.00 82.67    -0.099 NA
ENDROOT
BRANCH  10  12
HETATM   12  N14   D T9001     -12.100  -2.712   9.641  1.00 86.44    -0.227 NA
BRANCH  12  13
HETATM   13  C15   D T9001     -12.204  -1.385  10.146  1.00 87.38     0.084 A 
HETATM   14  C16   D T9001     -13.139  -1.048  11.179  1.00 88.13     0.033 A 
HETATM   15  C17   D T9001     -13.242   0.273  11.672  1.00 88.88     0.087 A 
HETATM   16  C18   D T9001     -12.406   1.286  11.132  1.00 88.55     0.151 A 
HETATM   17 CL     D T9001     -14.393   0.622  12.917  1.00 89.26    -0.080 Cl
HETATM   18  C19   D T9001     -11.465   0.982  10.107  1.00 87.62     0.032 A 
HETATM   19  F21   D T9001     -12.493   2.547  11.586  1.00 88.92    -0.203 F 
HETATM   20  C20   D T9001     -11.365  -0.349   9.614  1.00 87.82     0.021 A 
ENDBRANCH  12  13
ENDBRANCH  10  12
BRANCH   2  21
HETATM   21  O11   D T9001     -12.473  -9.189   8.570  1.00 85.44    -0.327 OA
HETATM   22  C12   D T9001     -13.534 -10.085   8.920  1.00 84.41     0.181 C 
ENDBRANCH   2  21
TORSDOF 3
