REMARK  3 active torsions:
REMARK  status: ('A' for Active; 'I' for Inactive)
REMARK    1  A    between atoms: C2_2  and  O11_20 
REMARK    2  A    between atoms: C10_10  and  N14_11 
REMARK    3  A    between atoms: N14_11  and  C15_12 
ROOT
HETATM    1  C1    D T9001      -9.181   3.024  -8.228  1.00 83.47     0.092 A 
HETATM    2  C2    D T9001     -10.361   2.406  -7.697  1.00 83.68     0.109 A 
HETATM    3  C3    D T9001     -10.399   0.984  -7.509  1.00 82.47     0.044 A 
HETATM    4  C4    D T9001      -9.314   0.156  -7.828  1.00 82.50     0.088 A 
HETATM    5  C5    D T9001      -8.116   0.758  -8.367  1.00 84.12     0.055 A 
HETATM    6  C6    D T9001      -8.072   2.194  -8.559  1.00 83.53     0.021 A 
HETATM    7  N7    D T9001      -9.442  -1.181  -7.613  1.00 81.78    -0.224 NA
HETATM    8  C8    D T9001      -8.378  -1.964  -7.924  1.00 83.59     0.200 A 
HETATM    9  N9    D T9001      -7.199  -1.534  -8.435  1.00 84.30    -0.205 NA
HETATM   10  C10   D T9001      -7.055  -0.169  -8.662  1.00 85.59     0.166 A 
HETATM   11  N13   D T9001      -9.103   4.423  -8.426  1.00 82.67    -0.099 NA
ENDROOT
BRANCH  10  12
HETATM   12  N14   D T9001      -5.815   0.323  -9.206  1.00 86.44    -0.227 NA
BRANCH  12  13
HETATM   13  C15   D T9001      -4.802  -0.448  -9.841  1.00 87.38     0.084 A 
HETATM   14  C16   D T9001      -5.122  -1.460 -10.804  1.00 88.13     0.033 A 
HETATM   15  C17   D T9001      -4.110  -2.227 -11.426  1.00 88.88     0.087 A 
HETATM   16  C18   D T9001      -2.751  -1.991 -11.089  1.00 88.55     0.151 A 
HETATM   17 CL     D T9001      -4.558  -3.439 -12.577  1.00 89.26    -0.080 Cl
HETATM   18  C19   D T9001      -2.399  -0.991 -10.139  1.00 87.62     0.032 A 
HETATM   19  F21   D T9001      -1.777  -2.713 -11.669  1.00 88.92    -0.203 F 
HETATM   20  C20   D T9001      -3.421  -0.222  -9.515  1.00 87.82     0.021 A 
ENDBRANCH  12  13
ENDBRANCH  10  12
BRANCH   2  21
HETATM   21  O11   D T9001     -11.404   3.277  -7.394  1.00 85.44    -0.327 OA
HETATM   22  C12   D T9001     -12.746   2.795  -7.533  1.00 84.41     0.181 C 
ENDBRANCH   2  21
TORSDOF 3
