REMARK  3 active torsions:
REMARK  status: ('A' for Active; 'I' for Inactive)
REMARK    1  A    between atoms: C2_2  and  O11_20 
REMARK    2  A    between atoms: C10_10  and  N14_11 
REMARK    3  A    between atoms: N14_11  and  C15_12 
ROOT
HETATM    1  C1    D T9001      -2.405  -5.756  11.261  1.00 83.47     0.092 A 
HETATM    2  C2    D T9001      -3.284  -6.887  11.200  1.00 83.68     0.109 A 
HETATM    3  C3    D T9001      -4.654  -6.706  10.812  1.00 82.47     0.044 A 
HETATM    4  C4    D T9001      -5.181  -5.450  10.484  1.00 82.50     0.088 A 
HETATM    5  C5    D T9001      -4.313  -4.296  10.542  1.00 84.12     0.055 A 
HETATM    6  C6    D T9001      -2.928  -4.473  10.933  1.00 83.53     0.021 A 
HETATM    7  N7    D T9001      -6.491  -5.378  10.126  1.00 81.78    -0.224 NA
HETATM    8  C8    D T9001      -6.980  -4.152   9.808  1.00 83.59     0.200 A 
HETATM    9  N9    D T9001      -6.281  -2.992   9.820  1.00 84.30    -0.205 NA
HETATM   10  C10   D T9001      -4.941  -3.051  10.186  1.00 85.59     0.166 A 
HETATM   11  N13   D T9001      -1.048  -5.893  11.637  1.00 82.67    -0.099 NA
ENDROOT
BRANCH  10  12
HETATM   12  N14   D T9001      -4.168  -1.835  10.211  1.00 86.44    -0.227 NA
BRANCH  12  13
HETATM   13  C15   D T9001      -4.675  -0.506  10.204  1.00 87.38     0.084 A 
HETATM   14  C16   D T9001      -5.786  -0.123  11.025  1.00 88.13     0.033 A 
HETATM   15  C17   D T9001      -6.289   1.198  11.008  1.00 88.88     0.087 A 
HETATM   16  C18   D T9001      -5.685   2.163  10.159  1.00 88.55     0.151 A 
HETATM   17 CL     D T9001      -7.635   1.602  12.019  1.00 89.26    -0.080 Cl
HETATM   18  C19   D T9001      -4.579   1.815   9.332  1.00 87.62     0.032 A 
HETATM   19  F21   D T9001      -6.153   3.423  10.127  1.00 88.92    -0.203 F 
HETATM   20  C20   D T9001      -4.076   0.484   9.353  1.00 87.82     0.021 A 
ENDBRANCH  12  13
ENDBRANCH  10  12
BRANCH   2  21
HETATM   21  O11   D T9001      -2.706  -8.110  11.532  1.00 85.44    -0.327 OA
HETATM   22  C12   D T9001      -3.532  -9.099  12.157  1.00 84.41     0.181 C 
ENDBRANCH   2  21
TORSDOF 3
