REMARK  3 active torsions:
REMARK  status: ('A' for Active; 'I' for Inactive)
REMARK    1  A    between atoms: C2_2  and  O11_20 
REMARK    2  A    between atoms: C10_10  and  N14_11 
REMARK    3  A    between atoms: N14_11  and  C15_12 
ROOT
HETATM    1  C1    D T9001     -12.504  -4.684  10.493  1.00 83.47     0.092 A 
HETATM    2  C2    D T9001     -13.781  -5.227  10.854  1.00 83.68     0.109 A 
HETATM    3  C3    D T9001     -14.969  -4.449  10.658  1.00 82.47     0.044 A 
HETATM    4  C4    D T9001     -14.938  -3.156  10.118  1.00 82.50     0.088 A 
HETATM    5  C5    D T9001     -13.661  -2.588   9.749  1.00 84.12     0.055 A 
HETATM    6  C6    D T9001     -12.457  -3.370   9.946  1.00 83.53     0.021 A 
HETATM    7  N7    D T9001     -16.117  -2.495   9.967  1.00 81.78    -0.224 NA
HETATM    8  C8    D T9001     -16.065  -1.246   9.438  1.00 83.59     0.200 A 
HETATM    9  N9    D T9001     -14.942  -0.595   9.051  1.00 84.30    -0.205 NA
HETATM   10  C10   D T9001     -13.729  -1.258   9.201  1.00 85.59     0.166 A 
HETATM   11  N13   D T9001     -11.309  -5.421  10.669  1.00 82.67    -0.099 NA
ENDROOT
BRANCH  10  12
HETATM   12  N14   D T9001     -12.514  -0.595   8.802  1.00 86.44    -0.227 NA
BRANCH  12  13
HETATM   13  C15   D T9001     -12.349   0.795   8.547  1.00 87.38     0.084 A 
HETATM   14  C16   D T9001     -12.912   1.788   9.414  1.00 88.13     0.033 A 
HETATM   15  C17   D T9001     -12.751   3.168   9.152  1.00 88.88     0.087 A 
HETATM   16  C18   D T9001     -12.020   3.578   8.005  1.00 88.55     0.151 A 
HETATM   17 CL     D T9001     -13.456   4.321  10.233  1.00 89.26    -0.080 Cl
HETATM   18  C19   D T9001     -11.447   2.617   7.125  1.00 87.62     0.032 A 
HETATM   19  F21   D T9001     -11.860   4.885   7.738  1.00 88.92    -0.203 F 
HETATM   20  C20   D T9001     -11.612   1.229   7.393  1.00 87.82     0.021 A 
ENDBRANCH  12  13
ENDBRANCH  10  12
BRANCH   2  21
HETATM   21  O11   D T9001     -13.752  -6.516  11.381  1.00 85.44    -0.327 OA
HETATM   22  C12   D T9001     -14.741  -6.869  12.355  1.00 84.41     0.181 C 
ENDBRANCH   2  21
TORSDOF 3
