REMARK  3 active torsions:
REMARK  status: ('A' for Active; 'I' for Inactive)
REMARK    1  A    between atoms: C2_2  and  O11_20 
REMARK    2  A    between atoms: C10_10  and  N14_11 
REMARK    3  A    between atoms: N14_11  and  C15_12 
ROOT
HETATM    1  C1    D T9001      -4.862  13.080   2.433  1.00 83.47     0.092 A 
HETATM    2  C2    D T9001      -6.164  13.411   2.934  1.00 83.68     0.109 A 
HETATM    3  C3    D T9001      -7.288  13.430   2.042  1.00 82.47     0.044 A 
HETATM    4  C4    D T9001      -7.168  13.135   0.678  1.00 82.50     0.088 A 
HETATM    5  C5    D T9001      -5.864  12.802   0.151  1.00 84.12     0.055 A 
HETATM    6  C6    D T9001      -4.725  12.781   1.048  1.00 83.53     0.021 A 
HETATM    7  N7    D T9001      -8.290  13.178  -0.089  1.00 81.78    -0.224 NA
HETATM    8  C8    D T9001      -8.152  12.884  -1.408  1.00 83.59     0.200 A 
HETATM    9  N9    D T9001      -6.995  12.557  -2.030  1.00 84.30    -0.205 NA
HETATM   10  C10   D T9001      -5.839  12.512  -1.259  1.00 85.59     0.166 A 
HETATM   11  N13   D T9001      -3.729  13.047   3.280  1.00 82.67    -0.099 NA
ENDROOT
BRANCH  10  12
HETATM   12  N14   D T9001      -4.589  12.170  -1.889  1.00 86.44    -0.227 NA
BRANCH  12  13
HETATM   13  C15   D T9001      -4.316  12.165  -3.285  1.00 87.38     0.084 A 
HETATM   14  C16   D T9001      -4.751  13.231  -4.138  1.00 88.13     0.033 A 
HETATM   15  C17   D T9001      -4.482  13.216  -5.526  1.00 88.88     0.087 A 
HETATM   16  C18   D T9001      -3.769  12.123  -6.086  1.00 88.55     0.151 A 
HETATM   17 CL     D T9001      -5.037  14.530  -6.507  1.00 89.26    -0.080 Cl
HETATM   18  C19   D T9001      -3.320  11.050  -5.265  1.00 87.62     0.032 A 
HETATM   19  F21   D T9001      -3.507  12.091  -7.404  1.00 88.92    -0.203 F 
HETATM   20  C20   D T9001      -3.595  11.069  -3.869  1.00 87.82     0.021 A 
ENDBRANCH  12  13
ENDBRANCH  10  12
BRANCH   2  21
HETATM   21  O11   D T9001      -6.225  13.690   4.297  1.00 85.44    -0.327 OA
HETATM   22  C12   D T9001      -7.198  14.639   4.748  1.00 84.41     0.181 C 
ENDBRANCH   2  21
TORSDOF 3
