REMARK  3 active torsions:
REMARK  status: ('A' for Active; 'I' for Inactive)
REMARK    1  A    between atoms: C2_2  and  O11_20 
REMARK    2  A    between atoms: C10_10  and  N14_11 
REMARK    3  A    between atoms: N14_11  and  C15_12 
ROOT
HETATM    1  C1    D T9001      -4.763  -9.323   3.687  1.00 83.47     0.074 A 
HETATM    2  C2    D T9001      -5.004  -9.819   5.010  1.00 83.68     0.105 A 
HETATM    3  C3    D T9001      -4.046  -9.573   6.050  1.00 82.47     0.044 A 
HETATM    4  C4    D T9001      -2.863  -8.856   5.826  1.00 82.50     0.084 A 
HETATM    5  C5    D T9001      -2.599  -8.349   4.498  1.00 84.12     0.037 A 
HETATM    6  C6    D T9001      -3.564  -8.595   3.444  1.00 83.53     0.074 A 
HETATM    7  N7    D T9001      -2.016  -8.672   6.874  1.00 81.78    -0.224 NA
HETATM    8  C8    D T9001      -0.878  -7.971   6.635  1.00 83.59     0.200 A 
HETATM    9  N9    D T9001      -0.507  -7.441   5.445  1.00 84.30    -0.205 NA
HETATM   10  C10   D T9001      -1.363  -7.624   4.364  1.00 85.59     0.162 A 
HETATM   11  N13   D T9001      -5.684  -9.542   2.635  1.00 82.67    -0.103 NA
ENDROOT
BRANCH  10  12
HETATM   12  N14   D T9001      -0.999  -7.076   3.083  1.00 86.44    -0.227 NA
BRANCH  12  13
HETATM   13  C15   D T9001       0.291  -6.621   2.689  1.00 87.38     0.084 A 
HETATM   14  C16   D T9001       1.475  -7.367   2.996  1.00 88.13     0.033 A 
HETATM   15  C17   D T9001       2.754  -6.906   2.608  1.00 88.88     0.087 A 
HETATM   16  C18   D T9001       2.867  -5.679   1.902  1.00 88.55     0.151 A 
HETATM   17 CL     D T9001       4.149  -7.847   3.011  1.00 89.26    -0.080 Cl
HETATM   18  C19   D T9001       1.709  -4.915   1.579  1.00 87.62     0.032 A 
HETATM   19  F21   D T9001       4.075  -5.224   1.528  1.00 88.92    -0.203 F 
HETATM   20  C20   D T9001       0.425  -5.384   1.973  1.00 87.82     0.021 A 
ENDBRANCH  12  13
ENDBRANCH  10  12
BRANCH   2  21
HETATM   21  O11   D T9001      -6.196 -10.519   5.177  1.00 85.44    -0.327 OA
HETATM   22  C12   D T9001      -6.226 -11.580   6.138  1.00 84.41     0.181 C 
ENDBRANCH   2  21
TORSDOF 3
