REMARK  3 active torsions:
REMARK  status: ('A' for Active; 'I' for Inactive)
REMARK    1  A    between atoms: C2_2  and  O11_20 
REMARK    2  A    between atoms: C10_10  and  N14_11 
REMARK    3  A    between atoms: N14_11  and  C15_12 
ROOT
HETATM    1  C1    D T9001       5.197  -8.403  -9.433  1.00 83.47     0.092 A 
HETATM    2  C2    D T9001       6.024  -9.482  -8.979  1.00 83.68     0.109 A 
HETATM    3  C3    D T9001       7.282  -9.202  -8.350  1.00 82.47     0.044 A 
HETATM    4  C4    D T9001       7.749  -7.895  -8.156  1.00 82.50     0.088 A 
HETATM    5  C5    D T9001       6.932  -6.792  -8.609  1.00 84.12     0.055 A 
HETATM    6  C6    D T9001       5.660  -7.069  -9.245  1.00 83.53     0.021 A 
HETATM    7  N7    D T9001       8.954  -7.727  -7.548  1.00 81.78    -0.224 NA
HETATM    8  C8    D T9001       9.385  -6.453  -7.366  1.00 83.59     0.200 A 
HETATM    9  N9    D T9001       8.724  -5.331  -7.739  1.00 84.30    -0.205 NA
HETATM   10  C10   D T9001       7.491  -5.488  -8.364  1.00 85.59     0.166 A 
HETATM   11  N13   D T9001       3.948  -8.637 -10.056  1.00 82.67    -0.099 NA
ENDROOT
BRANCH  10  12
HETATM   12  N14   D T9001       6.762  -4.316  -8.777  1.00 86.44    -0.227 NA
BRANCH  12  13
HETATM   13  C15   D T9001       7.278  -2.997  -8.908  1.00 87.38     0.084 A 
HETATM   14  C16   D T9001       8.544  -2.745  -9.532  1.00 88.13     0.033 A 
HETATM   15  C17   D T9001       9.054  -1.433  -9.653  1.00 88.88     0.087 A 
HETATM   16  C18   D T9001       8.300  -0.342  -9.144  1.00 88.55     0.151 A 
HETATM   17 CL     D T9001      10.591  -1.191 -10.412  1.00 89.26    -0.080 Cl
HETATM   18  C19   D T9001       7.038  -0.558  -8.521  1.00 87.62     0.032 A 
HETATM   19  F21   D T9001       8.771   0.912  -9.248  1.00 88.92    -0.203 F 
HETATM   20  C20   D T9001       6.529  -1.881  -8.401  1.00 87.82     0.021 A 
ENDBRANCH  12  13
ENDBRANCH  10  12
BRANCH   2  21
HETATM   21  O11   D T9001       5.509 -10.758  -9.194  1.00 85.44    -0.327 OA
HETATM   22  C12   D T9001       6.432 -11.826  -9.436  1.00 84.41     0.181 C 
ENDBRANCH   2  21
TORSDOF 3
