REMARK  3 active torsions:
REMARK  status: ('A' for Active; 'I' for Inactive)
REMARK    1  A    between atoms: C2_2  and  O11_20 
REMARK    2  A    between atoms: C10_10  and  N14_11 
REMARK    3  A    between atoms: N14_11  and  C15_12 
ROOT
HETATM    1  C1    D T9001       7.665  11.568   2.725  1.00 83.47     0.092 A 
HETATM    2  C2    D T9001       7.925  10.515   3.662  1.00 83.68     0.109 A 
HETATM    3  C3    D T9001       6.838   9.731   4.176  1.00 82.47     0.044 A 
HETATM    4  C4    D T9001       5.508   9.954   3.796  1.00 82.50     0.088 A 
HETATM    5  C5    D T9001       5.223  11.013   2.854  1.00 84.12     0.055 A 
HETATM    6  C6    D T9001       6.317  11.807   2.332  1.00 83.53     0.021 A 
HETATM    7  N7    D T9001       4.545   9.159   4.335  1.00 81.78    -0.224 NA
HETATM    8  C8    D T9001       3.264   9.389   3.950  1.00 83.59     0.200 A 
HETATM    9  N9    D T9001       2.856  10.343   3.080  1.00 84.30    -0.205 NA
HETATM   10  C10   D T9001       3.830  11.165   2.522  1.00 85.59     0.166 A 
HETATM   11  N13   D T9001       8.709  12.361   2.193  1.00 82.67    -0.099 NA
ENDROOT
BRANCH  10  12
HETATM   12  N14   D T9001       3.432  12.192   1.594  1.00 86.44    -0.227 NA
BRANCH  12  13
HETATM   13  C15   D T9001       2.115  12.691   1.393  1.00 87.38     0.084 A 
HETATM   14  C16   D T9001       1.251  12.992   2.496  1.00 88.13     0.033 A 
HETATM   15  C17   D T9001      -0.060  13.481   2.289  1.00 88.88     0.087 A 
HETATM   16  C18   D T9001      -0.530  13.676   0.963  1.00 88.55     0.151 A 
HETATM   17 CL     D T9001      -1.060  13.822   3.660  1.00 89.26    -0.080 Cl
HETATM   18  C19   D T9001       0.305  13.389  -0.154  1.00 87.62     0.032 A 
HETATM   19  F21   D T9001      -1.773  14.137   0.748  1.00 88.92    -0.203 F 
HETATM   20  C20   D T9001       1.623  12.896   0.059  1.00 87.82     0.021 A 
ENDBRANCH  12  13
ENDBRANCH  10  12
BRANCH   2  21
HETATM   21  O11   D T9001       9.264  10.335   4.000  1.00 85.44    -0.327 OA
HETATM   22  C12   D T9001       9.570   9.870   5.319  1.00 84.41     0.181 C 
ENDBRANCH   2  21
TORSDOF 3
