REMARK  3 active torsions:
REMARK  status: ('A' for Active; 'I' for Inactive)
REMARK    1  A    between atoms: C2_2  and  O11_20 
REMARK    2  A    between atoms: C10_10  and  N14_11 
REMARK    3  A    between atoms: N14_11  and  C15_12 
ROOT
HETATM    1  C1    D T9001      -1.694  -1.885  14.809  1.00 83.47     0.092 A 
HETATM    2  C2    D T9001      -2.582  -2.959  15.148  1.00 83.68     0.109 A 
HETATM    3  C3    D T9001      -3.993  -2.811  14.940  1.00 82.47     0.044 A 
HETATM    4  C4    D T9001      -4.554  -1.642  14.409  1.00 82.50     0.088 A 
HETATM    5  C5    D T9001      -3.678  -0.546  14.063  1.00 84.12     0.055 A 
HETATM    6  C6    D T9001      -2.251  -0.690  14.272  1.00 83.53     0.021 A 
HETATM    7  N7    D T9001      -5.904  -1.594  14.245  1.00 81.78    -0.224 NA
HETATM    8  C8    D T9001      -6.426  -0.454  13.725  1.00 83.59     0.200 A 
HETATM    9  N9    D T9001      -5.724   0.645  13.359  1.00 84.30    -0.205 NA
HETATM   10  C10   D T9001      -4.343   0.611  13.523  1.00 85.59     0.166 A 
HETATM   11  N13   D T9001      -0.296  -1.993  14.998  1.00 82.67    -0.099 NA
ENDROOT
BRANCH  10  12
HETATM   12  N14   D T9001      -3.565   1.763  13.146  1.00 86.44    -0.227 NA
BRANCH  12  13
HETATM   13  C15   D T9001      -4.056   3.077  12.903  1.00 87.38     0.084 A 
HETATM   14  C16   D T9001      -5.020   3.689  13.769  1.00 88.13     0.033 A 
HETATM   15  C17   D T9001      -5.508   4.992  13.519  1.00 88.88     0.087 A 
HETATM   16  C18   D T9001      -5.036   5.707  12.386  1.00 88.55     0.151 A 
HETATM   17 CL     D T9001      -6.675   5.678  14.597  1.00 89.26    -0.080 Cl
HETATM   18  C19   D T9001      -4.077   5.128  11.508  1.00 87.62     0.032 A 
HETATM   19  F21   D T9001      -5.492   6.945  12.130  1.00 88.92    -0.203 F 
HETATM   20  C20   D T9001      -3.589   3.816  11.764  1.00 87.82     0.021 A 
ENDBRANCH  12  13
ENDBRANCH  10  12
BRANCH   2  21
HETATM   21  O11   D T9001      -1.970  -4.097  15.667  1.00 85.44    -0.327 OA
HETATM   22  C12   D T9001      -2.696  -4.877  16.623  1.00 84.41     0.181 C 
ENDBRANCH   2  21
TORSDOF 3
