REMARK  3 active torsions:
REMARK  status: ('A' for Active; 'I' for Inactive)
REMARK    1  A    between atoms: C2_2  and  O11_20 
REMARK    2  A    between atoms: C10_10  and  N14_11 
REMARK    3  A    between atoms: N14_11  and  C15_12 
ROOT
HETATM    1  C1    D T9001      -0.885   0.148  14.476  1.00 83.47     0.092 A 
HETATM    2  C2    D T9001      -1.508  -1.002  15.065  1.00 83.68     0.109 A 
HETATM    3  C3    D T9001      -2.906  -1.244  14.852  1.00 82.47     0.044 A 
HETATM    4  C4    D T9001      -3.706  -0.390  14.080  1.00 82.50     0.088 A 
HETATM    5  C5    D T9001      -3.099   0.776  13.480  1.00 84.12     0.055 A 
HETATM    6  C6    D T9001      -1.687   1.025  13.691  1.00 83.53     0.021 A 
HETATM    7  N7    D T9001      -5.022  -0.702  13.934  1.00 81.78    -0.224 NA
HETATM    8  C8    D T9001      -5.777   0.135  13.178  1.00 83.59     0.200 A 
HETATM    9  N9    D T9001      -5.340   1.258  12.561  1.00 84.30    -0.205 NA
HETATM   10  C10   D T9001      -3.997   1.591  12.704  1.00 85.59     0.166 A 
HETATM   11  N13   D T9001       0.491   0.420  14.660  1.00 82.67    -0.099 NA
ENDROOT
BRANCH  10  12
HETATM   12  N14   D T9001      -3.498   2.780  12.062  1.00 86.44    -0.227 NA
BRANCH  12  13
HETATM   13  C15   D T9001      -4.274   3.851  11.537  1.00 87.38     0.084 A 
HETATM   14  C16   D T9001      -5.387   4.395  12.259  1.00 88.13     0.033 A 
HETATM   15  C17   D T9001      -6.158   5.454  11.728  1.00 88.88     0.087 A 
HETATM   16  C18   D T9001      -5.825   5.988  10.455  1.00 88.55     0.151 A 
HETATM   17 CL     D T9001      -7.493   6.067  12.643  1.00 89.26    -0.080 Cl
HETATM   18  C19   D T9001      -4.724   5.472   9.714  1.00 87.62     0.032 A 
HETATM   19  F21   D T9001      -6.549   6.993   9.933  1.00 88.92    -0.203 F 
HETATM   20  C20   D T9001      -3.952   4.405  10.252  1.00 87.82     0.021 A 
ENDBRANCH  12  13
ENDBRANCH  10  12
BRANCH   2  21
HETATM   21  O11   D T9001      -0.665  -1.817  15.816  1.00 85.44    -0.327 OA
HETATM   22  C12   D T9001      -1.223  -2.512  16.937  1.00 84.41     0.181 C 
ENDBRANCH   2  21
TORSDOF 3
