REMARK  3 active torsions:
REMARK  status: ('A' for Active; 'I' for Inactive)
REMARK    1  A    between atoms: C2_2  and  O11_20 
REMARK    2  A    between atoms: C10_10  and  N14_11 
REMARK    3  A    between atoms: N14_11  and  C15_12 
ROOT
HETATM    1  C1    D T9001       0.495   8.757  -2.701  1.00 83.47     0.092 A 
HETATM    2  C2    D T9001      -0.606   9.655  -2.890  1.00 83.68     0.109 A 
HETATM    3  C3    D T9001      -1.181   9.815  -4.195  1.00 82.47     0.044 A 
HETATM    4  C4    D T9001      -0.705   9.120  -5.314  1.00 82.50     0.088 A 
HETATM    5  C5    D T9001       0.407   8.212  -5.147  1.00 84.12     0.055 A 
HETATM    6  C6    D T9001       0.991   8.046  -3.831  1.00 83.53     0.021 A 
HETATM    7  N7    D T9001      -1.314   9.336  -6.511  1.00 81.78    -0.224 NA
HETATM    8  C8    D T9001      -0.840   8.649  -7.581  1.00 83.59     0.200 A 
HETATM    9  N9    D T9001       0.190   7.771  -7.567  1.00 84.30    -0.205 NA
HETATM   10  C10   D T9001       0.825   7.542  -6.350  1.00 85.59     0.166 A 
HETATM   11  N13   D T9001       1.087   8.569  -1.429  1.00 82.67    -0.099 NA
ENDROOT
BRANCH  10  12
HETATM   12  N14   D T9001       1.926   6.615  -6.299  1.00 86.44    -0.227 NA
BRANCH  12  13
HETATM   13  C15   D T9001       2.668   6.114  -7.405  1.00 87.38     0.084 A 
HETATM   14  C16   D T9001       3.104   6.975  -8.466  1.00 88.13     0.033 A 
HETATM   15  C17   D T9001       3.835   6.470  -9.565  1.00 88.88     0.087 A 
HETATM   16  C18   D T9001       4.140   5.084  -9.622  1.00 88.55     0.151 A 
HETATM   17 CL     D T9001       4.331   7.556 -10.819  1.00 89.26    -0.080 Cl
HETATM   18  C19   D T9001       3.723   4.204  -8.584  1.00 87.62     0.032 A 
HETATM   19  F21   D T9001       4.831   4.587 -10.662  1.00 88.92    -0.203 F 
HETATM   20  C20   D T9001       2.987   4.716  -7.479  1.00 87.82     0.021 A 
ENDBRANCH  12  13
ENDBRANCH  10  12
BRANCH   2  21
HETATM   21  O11   D T9001      -1.041  10.315  -1.743  1.00 85.44    -0.327 OA
HETATM   22  C12   D T9001      -1.581  11.633  -1.887  1.00 84.41     0.181 C 
ENDBRANCH   2  21
TORSDOF 3
