REMARK  3 active torsions:
REMARK  status: ('A' for Active; 'I' for Inactive)
REMARK    1  A    between atoms: C2_2  and  O11_20 
REMARK    2  A    between atoms: C10_10  and  N14_11 
REMARK    3  A    between atoms: N14_11  and  C15_12 
ROOT
HETATM    1  C1    D T9001      -4.503  -5.440   9.156  1.00 83.47     0.092 A 
HETATM    2  C2    D T9001      -5.643  -6.088   8.575  1.00 83.68     0.109 A 
HETATM    3  C3    D T9001      -6.804  -5.319   8.232  1.00 82.47     0.044 A 
HETATM    4  C4    D T9001      -6.876  -3.935   8.444  1.00 82.50     0.088 A 
HETATM    5  C5    D T9001      -5.740  -3.262   9.032  1.00 84.12     0.055 A 
HETATM    6  C6    D T9001      -4.565  -4.035   9.380  1.00 83.53     0.021 A 
HETATM    7  N7    D T9001      -8.019  -3.290   8.085  1.00 81.78    -0.224 NA
HETATM    8  C8    D T9001      -8.066  -1.950   8.295  1.00 83.59     0.200 A 
HETATM    9  N9    D T9001      -7.079  -1.196   8.835  1.00 84.30    -0.205 NA
HETATM   10  C10   D T9001      -5.906  -1.843   9.209  1.00 85.59     0.166 A 
HETATM   11  N13   D T9001      -3.338  -6.163   9.506  1.00 82.67    -0.099 NA
ENDROOT
BRANCH  10  12
HETATM   12  N14   D T9001      -4.835  -1.073   9.788  1.00 86.44    -0.227 NA
BRANCH  12  13
HETATM   13  C15   D T9001      -4.928   0.243  10.322  1.00 87.38     0.084 A 
HETATM   14  C16   D T9001      -6.016   0.632  11.171  1.00 88.13     0.033 A 
HETATM   15  C17   D T9001      -6.106   1.943  11.693  1.00 88.88     0.087 A 
HETATM   16  C18   D T9001      -5.101   2.893  11.368  1.00 88.55     0.151 A 
HETATM   17 CL     D T9001      -7.444   2.357  12.709  1.00 89.26    -0.080 Cl
HETATM   18  C19   D T9001      -4.007   2.537  10.529  1.00 87.62     0.032 A 
HETATM   19  F21   D T9001      -5.173   4.144  11.852  1.00 88.92    -0.203 F 
HETATM   20  C20   D T9001      -3.921   1.216  10.006  1.00 87.82     0.021 A 
ENDBRANCH  12  13
ENDBRANCH  10  12
BRANCH   2  21
HETATM   21  O11   D T9001      -5.513  -7.461   8.383  1.00 85.44    -0.327 OA
HETATM   22  C12   D T9001      -6.691  -8.270   8.484  1.00 84.41     0.181 C 
ENDBRANCH   2  21
TORSDOF 3
