REMARK  3 active torsions:
REMARK  status: ('A' for Active; 'I' for Inactive)
REMARK    1  A    between atoms: C2_2  and  O11_20 
REMARK    2  A    between atoms: C10_10  and  N14_11 
REMARK    3  A    between atoms: N14_11  and  C15_12 
ROOT
HETATM    1  C1    D T9001      16.796  10.890   0.546  1.00 83.47     0.092 A 
HETATM    2  C2    D T9001      17.112   9.913   1.547  1.00 83.68     0.109 A 
HETATM    3  C3    D T9001      16.056   9.253   2.260  1.00 82.47     0.044 A 
HETATM    4  C4    D T9001      14.703   9.527   2.018  1.00 82.50     0.088 A 
HETATM    5  C5    D T9001      14.362  10.511   1.016  1.00 84.12     0.055 A 
HETATM    6  C6    D T9001      15.425  11.180   0.293  1.00 83.53     0.021 A 
HETATM    7  N7    D T9001      13.772   8.850   2.743  1.00 81.78    -0.224 NA
HETATM    8  C8    D T9001      12.467   9.127   2.490  1.00 83.59     0.200 A 
HETATM    9  N9    D T9001      12.008  10.022   1.582  1.00 84.30    -0.205 NA
HETATM   10  C10   D T9001      12.949  10.723   0.836  1.00 85.59     0.166 A 
HETATM   11  N13   D T9001      17.808  11.560  -0.181  1.00 82.67    -0.099 NA
ENDROOT
BRANCH  10  12
HETATM   12  N14   D T9001      12.496  11.684  -0.137  1.00 86.44    -0.227 NA
BRANCH  12  13
HETATM   13  C15   D T9001      11.193  12.248  -0.231  1.00 87.38     0.084 A 
HETATM   14  C16   D T9001      10.489  12.705   0.931  1.00 88.13     0.033 A 
HETATM   15  C17   D T9001       9.192  13.258   0.831  1.00 88.88     0.087 A 
HETATM   16  C18   D T9001       8.573  13.360  -0.443  1.00 88.55     0.151 A 
HETATM   17 CL     D T9001       8.388  13.789   2.270  1.00 89.26    -0.080 Cl
HETATM   18  C19   D T9001       9.247  12.917  -1.617  1.00 87.62     0.032 A 
HETATM   19  F21   D T9001       7.339  13.880  -0.555  1.00 88.92    -0.203 F 
HETATM   20  C20   D T9001      10.553  12.361  -1.511  1.00 87.82     0.021 A 
ENDBRANCH  12  13
ENDBRANCH  10  12
BRANCH   2  21
HETATM   21  O11   D T9001      18.471   9.678   1.741  1.00 85.44    -0.327 OA
HETATM   22  C12   D T9001      18.911   9.317   3.055  1.00 84.41     0.181 C 
ENDBRANCH   2  21
TORSDOF 3
