REMARK  3 active torsions:
REMARK  status: ('A' for Active; 'I' for Inactive)
REMARK    1  A    between atoms: C2_2  and  O11_20 
REMARK    2  A    between atoms: C10_10  and  N14_11 
REMARK    3  A    between atoms: N14_11  and  C15_12 
ROOT
HETATM    1  C1    D T9001      10.541   3.035  -4.404  1.00 83.47     0.092 A 
HETATM    2  C2    D T9001      10.470   4.432  -4.717  1.00 83.68     0.109 A 
HETATM    3  C3    D T9001       9.537   4.897  -5.702  1.00 82.47     0.044 A 
HETATM    4  C4    D T9001       8.674   4.030  -6.386  1.00 82.50     0.088 A 
HETATM    5  C5    D T9001       8.731   2.617  -6.089  1.00 84.12     0.055 A 
HETATM    6  C6    D T9001       9.672   2.142  -5.094  1.00 83.53     0.021 A 
HETATM    7  N7    D T9001       7.822   4.564  -7.302  1.00 81.78    -0.224 NA
HETATM    8  C8    D T9001       6.992   3.706  -7.950  1.00 83.59     0.200 A 
HETATM    9  N9    D T9001       6.940   2.365  -7.770  1.00 84.30    -0.205 NA
HETATM   10  C10   D T9001       7.807   1.806  -6.838  1.00 85.59     0.166 A 
HETATM   11  N13   D T9001      11.446   2.537  -3.437  1.00 82.67    -0.099 NA
ENDROOT
BRANCH  10  12
HETATM   12  N14   D T9001       7.780   0.382  -6.623  1.00 86.44    -0.227 NA
BRANCH  12  13
HETATM   13  C15   D T9001       7.183  -0.594  -7.469  1.00 87.38     0.084 A 
HETATM   14  C16   D T9001       7.345  -0.551  -8.893  1.00 88.13     0.033 A 
HETATM   15  C17   D T9001       6.743  -1.520  -9.728  1.00 88.88     0.087 A 
HETATM   16  C18   D T9001       5.962  -2.553  -9.147  1.00 88.55     0.151 A 
HETATM   17 CL     D T9001       6.971  -1.415 -11.441  1.00 89.26    -0.080 Cl
HETATM   18  C19   D T9001       5.783  -2.625  -7.736  1.00 87.62     0.032 A 
HETATM   19  F21   D T9001       5.380  -3.481  -9.927  1.00 88.92    -0.203 F 
HETATM   20  C20   D T9001       6.390  -1.647  -6.899  1.00 87.82     0.021 A 
ENDBRANCH  12  13
ENDBRANCH  10  12
BRANCH   2  21
HETATM   21  O11   D T9001      11.346   5.247  -4.004  1.00 85.44    -0.327 OA
HETATM   22  C12   D T9001      11.852   6.421  -4.650  1.00 84.41     0.181 C 
ENDBRANCH   2  21
TORSDOF 3
