REMARK  3 active torsions:
REMARK  status: ('A' for Active; 'I' for Inactive)
REMARK    1  A    between atoms: C2_2  and  O11_20 
REMARK    2  A    between atoms: C10_10  and  N14_11 
REMARK    3  A    between atoms: N14_11  and  C15_12 
ROOT
HETATM    1  C1    D T9001       6.887   2.078  -0.665  1.00 83.47     0.092 A 
HETATM    2  C2    D T9001       7.714   2.089   0.506  1.00 83.68     0.109 A 
HETATM    3  C3    D T9001       7.554   3.127   1.484  1.00 82.47     0.044 A 
HETATM    4  C4    D T9001       6.607   4.150   1.343  1.00 82.50     0.088 A 
HETATM    5  C5    D T9001       5.765   4.160   0.168  1.00 84.12     0.055 A 
HETATM    6  C6    D T9001       5.923   3.114  -0.822  1.00 83.53     0.021 A 
HETATM    7  N7    D T9001       6.527   5.090   2.323  1.00 81.78    -0.224 NA
HETATM    8  C8    D T9001       5.601   6.070   2.168  1.00 83.59     0.200 A 
HETATM    9  N9    D T9001       4.750   6.199   1.122  1.00 84.30    -0.205 NA
HETATM   10  C10   D T9001       4.823   5.247   0.111  1.00 85.59     0.166 A 
HETATM   11  N13   D T9001       7.012   1.071  -1.651  1.00 82.67    -0.099 NA
ENDROOT
BRANCH  10  12
HETATM   12  N14   D T9001       3.934   5.355  -1.018  1.00 86.44    -0.227 NA
BRANCH  12  13
HETATM   13  C15   D T9001       3.180   6.500  -1.398  1.00 87.38     0.084 A 
HETATM   14  C16   D T9001       3.756   7.812  -1.396  1.00 88.13     0.033 A 
HETATM   15  C17   D T9001       2.999   8.946  -1.769  1.00 88.88     0.087 A 
HETATM   16  C18   D T9001       1.640   8.783  -2.149  1.00 88.55     0.151 A 
HETATM   17 CL     D T9001       3.747  10.507  -1.744  1.00 89.26    -0.080 Cl
HETATM   18  C19   D T9001       1.038   7.492  -2.163  1.00 87.62     0.032 A 
HETATM   19  F21   D T9001       0.904   9.850  -2.502  1.00 88.92    -0.203 F 
HETATM   20  C20   D T9001       1.805   6.354  -1.787  1.00 87.82     0.021 A 
ENDBRANCH  12  13
ENDBRANCH  10  12
BRANCH   2  21
HETATM   21  O11   D T9001       8.633   1.046   0.596  1.00 85.44    -0.327 OA
HETATM   22  C12   D T9001       9.878   1.300   1.258  1.00 84.41     0.181 C 
ENDBRANCH   2  21
TORSDOF 3
