REMARK  3 active torsions:
REMARK  status: ('A' for Active; 'I' for Inactive)
REMARK    1  A    between atoms: C2_2  and  O11_20 
REMARK    2  A    between atoms: C10_10  and  N14_11 
REMARK    3  A    between atoms: N14_11  and  C15_12 
ROOT
HETATM    1  C1    D T9001      -0.164  -3.082  10.020  1.00 83.47     0.092 A 
HETATM    2  C2    D T9001       0.066  -4.455  10.366  1.00 83.68     0.109 A 
HETATM    3  C3    D T9001      -0.945  -5.437  10.100  1.00 82.47     0.044 A 
HETATM    4  C4    D T9001      -2.171  -5.110   9.507  1.00 82.50     0.088 A 
HETATM    5  C5    D T9001      -2.426  -3.732   9.153  1.00 84.12     0.055 A 
HETATM    6  C6    D T9001      -1.408  -2.735   9.419  1.00 83.53     0.021 A 
HETATM    7  N7    D T9001      -3.068  -6.110   9.292  1.00 81.78    -0.224 NA
HETATM    8  C8    D T9001      -4.248  -5.772   8.712  1.00 83.59     0.200 A 
HETATM    9  N9    D T9001      -4.615  -4.526   8.332  1.00 84.30    -0.205 NA
HETATM   10  C10   D T9001      -3.710  -3.492   8.547  1.00 85.59     0.166 A 
HETATM   11  N13   D T9001       0.808  -2.084  10.263  1.00 82.67    -0.099 NA
ENDROOT
BRANCH  10  12
HETATM   12  N14   D T9001      -4.069  -2.153   8.156  1.00 86.44    -0.227 NA
BRANCH  12  13
HETATM   13  C15   D T9001      -5.375  -1.680   7.847  1.00 87.38     0.084 A 
HETATM   14  C16   D T9001      -6.508  -2.026   8.654  1.00 88.13     0.033 A 
HETATM   15  C17   D T9001      -7.804  -1.558   8.338  1.00 88.88     0.087 A 
HETATM   16  C18   D T9001      -7.987  -0.732   7.197  1.00 88.55     0.151 A 
HETATM   17 CL     D T9001      -9.135  -2.013   9.347  1.00 89.26    -0.080 Cl
HETATM   18  C19   D T9001      -6.882  -0.368   6.377  1.00 87.62     0.032 A 
HETATM   19  F21   D T9001      -9.213  -0.281   6.880  1.00 88.92    -0.203 F 
HETATM   20  C20   D T9001      -5.579  -0.842   6.699  1.00 87.82     0.021 A 
ENDBRANCH  12  13
ENDBRANCH  10  12
BRANCH   2  21
HETATM   21  O11   D T9001       1.302  -4.723  10.948  1.00 85.44    -0.327 OA
HETATM   22  C12   D T9001       1.381  -5.785  11.905  1.00 84.41     0.181 C 
ENDBRANCH   2  21
TORSDOF 3
