REMARK  3 active torsions:
REMARK  status: ('A' for Active; 'I' for Inactive)
REMARK    1  A    between atoms: C2_2  and  O11_20 
REMARK    2  A    between atoms: C10_10  and  N14_11 
REMARK    3  A    between atoms: N14_11  and  C15_12 
ROOT
HETATM    1  C1    D T9001     -12.550   0.694  -6.649  1.00 83.47     0.092 A 
HETATM    2  C2    D T9001     -12.055  -0.393  -7.442  1.00 83.68     0.109 A 
HETATM    3  C3    D T9001     -10.649  -0.499  -7.709  1.00 82.47     0.044 A 
HETATM    4  C4    D T9001      -9.720   0.430  -7.220  1.00 82.50     0.088 A 
HETATM    5  C5    D T9001     -10.199   1.535  -6.421  1.00 84.12     0.055 A 
HETATM    6  C6    D T9001     -11.618   1.647  -6.148  1.00 83.53     0.021 A 
HETATM    7  N7    D T9001      -8.407   0.246  -7.524  1.00 81.78    -0.224 NA
HETATM    8  C8    D T9001      -7.525   1.155  -7.037  1.00 83.59     0.200 A 
HETATM    9  N9    D T9001      -7.834   2.234  -6.279  1.00 84.30    -0.205 NA
HETATM   10  C10   D T9001      -9.174   2.436  -5.962  1.00 85.59     0.166 A 
HETATM   11  N13   D T9001     -13.929   0.832  -6.361  1.00 82.67    -0.099 NA
ENDROOT
BRANCH  10  12
HETATM   12  N14   D T9001      -9.539   3.574  -5.159  1.00 86.44    -0.227 NA
BRANCH  12  13
HETATM   13  C15   D T9001      -8.735   4.717  -4.889  1.00 87.38     0.084 A 
HETATM   14  C16   D T9001      -7.978   5.361  -5.921  1.00 88.13     0.033 A 
HETATM   15  C17   D T9001      -7.175   6.492  -5.645  1.00 88.88     0.087 A 
HETATM   16  C18   D T9001      -7.115   6.997  -4.319  1.00 88.55     0.151 A 
HETATM   17 CL     D T9001      -6.280   7.226  -6.931  1.00 89.26    -0.080 Cl
HETATM   18  C19   D T9001      -7.857   6.380  -3.271  1.00 87.62     0.032 A 
HETATM   19  F21   D T9001      -6.355   8.069  -4.038  1.00 88.92    -0.203 F 
HETATM   20  C20   D T9001      -8.663   5.242  -3.554  1.00 87.82     0.021 A 
ENDBRANCH  12  13
ENDBRANCH  10  12
BRANCH   2  21
HETATM   21  O11   D T9001     -13.020  -1.288  -7.896  1.00 85.44    -0.327 OA
HETATM   22  C12   D T9001     -12.803  -1.931  -9.157  1.00 84.41     0.181 C 
ENDBRANCH   2  21
TORSDOF 3
