REMARK  3 active torsions:
REMARK  status: ('A' for Active; 'I' for Inactive)
REMARK    1  A    between atoms: C2_2  and  O11_20 
REMARK    2  A    between atoms: C10_10  and  N14_11 
REMARK    3  A    between atoms: N14_11  and  C15_12 
ROOT
HETATM    1  C1    D T9001       9.448 -11.448  -5.137  1.00 83.47     0.092 A 
HETATM    2  C2    D T9001       9.982 -11.553  -6.464  1.00 83.68     0.109 A 
HETATM    3  C3    D T9001       9.126 -11.347  -7.597  1.00 82.47     0.044 A 
HETATM    4  C4    D T9001       7.764 -11.044  -7.462  1.00 82.50     0.088 A 
HETATM    5  C5    D T9001       7.204 -10.937  -6.134  1.00 84.12     0.055 A 
HETATM    6  C6    D T9001       8.065 -11.143  -4.986  1.00 83.53     0.021 A 
HETATM    7  N7    D T9001       7.031 -10.865  -8.594  1.00 81.78    -0.224 NA
HETATM    8  C8    D T9001       5.716 -10.567  -8.441  1.00 83.59     0.200 A 
HETATM    9  N9    D T9001       5.064 -10.437  -7.261  1.00 84.30    -0.205 NA
HETATM   10  C10   D T9001       5.801 -10.620  -6.095  1.00 85.59     0.166 A 
HETATM   11  N13   D T9001      10.260 -11.641  -3.995  1.00 82.67    -0.099 NA
ENDROOT
BRANCH  10  12
HETATM   12  N14   D T9001       5.139 -10.491  -4.822  1.00 86.44    -0.227 NA
BRANCH  12  13
HETATM   13  C15   D T9001       3.735 -10.500  -4.589  1.00 87.38     0.084 A 
HETATM   14  C16   D T9001       2.875 -11.448  -5.232  1.00 88.13     0.033 A 
HETATM   15  C17   D T9001       1.480 -11.447  -5.002  1.00 88.88     0.087 A 
HETATM   16  C18   D T9001       0.920 -10.486  -4.119  1.00 88.55     0.151 A 
HETATM   17 CL     D T9001       0.490 -12.614  -5.811  1.00 89.26    -0.080 Cl
HETATM   18  C19   D T9001       1.748  -9.531  -3.463  1.00 87.62     0.032 A 
HETATM   19  F21   D T9001      -0.404 -10.468  -3.892  1.00 88.92    -0.203 F 
HETATM   20  C20   D T9001       3.152  -9.536  -3.698  1.00 87.82     0.021 A 
ENDBRANCH  12  13
ENDBRANCH  10  12
BRANCH   2  21
HETATM   21  O11   D T9001      11.340 -11.851  -6.538  1.00 85.44    -0.327 OA
HETATM   22  C12   D T9001      11.802 -12.621  -7.653  1.00 84.41     0.181 C 
ENDBRANCH   2  21
TORSDOF 3
