REMARK  3 active torsions:
REMARK  status: ('A' for Active; 'I' for Inactive)
REMARK    1  A    between atoms: C2_2  and  O11_20 
REMARK    2  A    between atoms: C10_10  and  N14_11 
REMARK    3  A    between atoms: N14_11  and  C15_12 
ROOT
HETATM    1  C1    D T9001       9.059   8.894   7.129  1.00 83.47     0.092 A 
HETATM    2  C2    D T9001       9.421   7.850   8.042  1.00 83.68     0.109 A 
HETATM    3  C3    D T9001       8.484   6.805   8.340  1.00 82.47     0.044 A 
HETATM    4  C4    D T9001       7.205   6.759   7.769  1.00 82.50     0.088 A 
HETATM    5  C5    D T9001       6.818   7.804   6.848  1.00 84.12     0.055 A 
HETATM    6  C6    D T9001       7.761   8.861   6.543  1.00 83.53     0.021 A 
HETATM    7  N7    D T9001       6.386   5.729   8.111  1.00 81.78    -0.224 NA
HETATM    8  C8    D T9001       5.154   5.701   7.542  1.00 83.59     0.200 A 
HETATM    9  N9    D T9001       4.663   6.611   6.667  1.00 84.30    -0.205 NA
HETATM   10  C10   D T9001       5.489   7.672   6.310  1.00 85.59     0.166 A 
HETATM   11  N13   D T9001       9.955   9.941   6.806  1.00 82.67    -0.099 NA
ENDROOT
BRANCH  10  12
HETATM   12  N14   D T9001       4.999   8.659   5.383  1.00 86.44    -0.227 NA
BRANCH  12  13
HETATM   13  C15   D T9001       3.643   8.870   5.004  1.00 87.38     0.084 A 
HETATM   14  C16   D T9001       2.587   8.878   5.973  1.00 88.13     0.033 A 
HETATM   15  C17   D T9001       1.242   9.080   5.588  1.00 88.88     0.087 A 
HETATM   16  C18   D T9001       0.931   9.277   4.217  1.00 88.55     0.151 A 
HETATM   17 CL     D T9001       0.007   9.075   6.802  1.00 89.26    -0.080 Cl
HETATM   18  C19   D T9001       1.958   9.277   3.230  1.00 87.62     0.032 A 
HETATM   19  F21   D T9001      -0.343   9.468   3.833  1.00 88.92    -0.203 F 
HETATM   20  C20   D T9001       3.310   9.072   3.622  1.00 87.82     0.021 A 
ENDBRANCH  12  13
ENDBRANCH  10  12
BRANCH   2  21
HETATM   21  O11   D T9001      10.704   7.944   8.575  1.00 85.44    -0.327 OA
HETATM   22  C12   D T9001      10.921   7.448   9.901  1.00 84.41     0.181 C 
ENDBRANCH   2  21
TORSDOF 3
