REMARK  3 active torsions:
REMARK  status: ('A' for Active; 'I' for Inactive)
REMARK    1  A    between atoms: C2_2  and  O11_20 
REMARK    2  A    between atoms: C10_10  and  N14_11 
REMARK    3  A    between atoms: N14_11  and  C15_12 
ROOT
HETATM    1  C1    D T9001       0.615  14.821  -4.250  1.00 83.47     0.092 A 
HETATM    2  C2    D T9001      -0.298  15.828  -4.706  1.00 83.68     0.109 A 
HETATM    3  C3    D T9001      -0.951  15.677  -5.975  1.00 82.47     0.044 A 
HETATM    4  C4    D T9001      -0.731  14.570  -6.805  1.00 82.50     0.088 A 
HETATM    5  C5    D T9001       0.188  13.544  -6.365  1.00 84.12     0.055 A 
HETATM    6  C6    D T9001       0.850  13.691  -5.084  1.00 83.53     0.021 A 
HETATM    7  N7    D T9001      -1.397  14.514  -7.989  1.00 81.78    -0.224 NA
HETATM    8  C8    D T9001      -1.173  13.430  -8.776  1.00 83.59     0.200 A 
HETATM    9  N9    D T9001      -0.341  12.400  -8.489  1.00 84.30    -0.205 NA
HETATM   10  C10   D T9001       0.348  12.445  -7.282  1.00 85.59     0.166 A 
HETATM   11  N13   D T9001       1.277  14.930  -3.004  1.00 82.67    -0.099 NA
ENDROOT
BRANCH  10  12
HETATM   12  N14   D T9001       1.242  11.368  -6.945  1.00 86.44    -0.227 NA
BRANCH  12  13
HETATM   13  C15   D T9001       1.761  10.385  -7.834  1.00 87.38     0.084 A 
HETATM   14  C16   D T9001       2.257  10.736  -9.133  1.00 88.13     0.033 A 
HETATM   15  C17   D T9001       2.764   9.754 -10.014  1.00 88.88     0.087 A 
HETATM   16  C18   D T9001       2.781   8.394  -9.606  1.00 88.55     0.151 A 
HETATM   17 CL     D T9001       3.345  10.237 -11.571  1.00 89.26    -0.080 Cl
HETATM   18  C19   D T9001       2.297   8.013  -8.322  1.00 87.62     0.032 A 
HETATM   19  F21   D T9001       3.256   7.447 -10.433  1.00 88.92    -0.203 F 
HETATM   20  C20   D T9001       1.787   9.005  -7.439  1.00 87.82     0.021 A 
ENDBRANCH  12  13
ENDBRANCH  10  12
BRANCH   2  21
HETATM   21  O11   D T9001      -0.481  16.902  -3.839  1.00 85.44    -0.327 OA
HETATM   22  C12   D T9001      -0.759  18.187  -4.408  1.00 84.41     0.181 C 
ENDBRANCH   2  21
TORSDOF 3
