REMARK  3 active torsions:
REMARK  status: ('A' for Active; 'I' for Inactive)
REMARK    1  A    between atoms: C2_2  and  O11_20 
REMARK    2  A    between atoms: C10_10  and  N14_11 
REMARK    3  A    between atoms: N14_11  and  C15_12 
ROOT
HETATM    1  C1    D T9001       7.743   8.587   3.187  1.00 83.47     0.092 A 
HETATM    2  C2    D T9001       7.964   7.337   3.853  1.00 83.68     0.109 A 
HETATM    3  C3    D T9001       6.846   6.511   4.211  1.00 82.47     0.044 A 
HETATM    4  C4    D T9001       5.523   6.880   3.934  1.00 82.50     0.088 A 
HETATM    5  C5    D T9001       5.277   8.138   3.267  1.00 84.12     0.055 A 
HETATM    6  C6    D T9001       6.403   8.975   2.903  1.00 83.53     0.021 A 
HETATM    7  N7    D T9001       4.528   6.031   4.310  1.00 81.78    -0.224 NA
HETATM    8  C8    D T9001       3.254   6.406   4.029  1.00 83.59     0.200 A 
HETATM    9  N9    D T9001       2.883   7.552   3.410  1.00 84.30    -0.205 NA
HETATM   10  C10   D T9001       3.889   8.430   3.022  1.00 85.59     0.166 A 
HETATM   11  N13   D T9001       8.818   9.428   2.815  1.00 82.67    -0.099 NA
ENDROOT
BRANCH  10  12
HETATM   12  N14   D T9001       3.530   9.660   2.364  1.00 86.44    -0.227 NA
BRANCH  12  13
HETATM   13  C15   D T9001       2.238  10.256   2.324  1.00 87.38     0.084 A 
HETATM   14  C16   D T9001       1.414  10.339   3.494  1.00 88.13     0.033 A 
HETATM   15  C17   D T9001       0.129  10.926   3.445  1.00 88.88     0.087 A 
HETATM   16  C18   D T9001      -0.356  11.441   2.213  1.00 88.55     0.151 A 
HETATM   17 CL     D T9001      -0.823  10.995   4.889  1.00 89.26    -0.080 Cl
HETATM   18  C19   D T9001       0.439  11.376   1.034  1.00 87.62     0.032 A 
HETATM   19  F21   D T9001      -1.577  12.000   2.149  1.00 88.92    -0.203 F 
HETATM   20  C20   D T9001       1.731  10.783   1.088  1.00 87.82     0.021 A 
ENDBRANCH  12  13
ENDBRANCH  10  12
BRANCH   2  21
HETATM   21  O11   D T9001       9.297   7.019   4.098  1.00 85.44    -0.327 OA
HETATM   22  C12   D T9001       9.604   6.251   5.267  1.00 84.41     0.181 C 
ENDBRANCH   2  21
TORSDOF 3
