REMARK  3 active torsions:
REMARK  status: ('A' for Active; 'I' for Inactive)
REMARK    1  A    between atoms: C2_2  and  O11_20 
REMARK    2  A    between atoms: C10_10  and  N14_11 
REMARK    3  A    between atoms: N14_11  and  C15_12 
ROOT
HETATM    1  C1    D T9001      -7.115  -5.334  10.963  1.00 83.47     0.092 A 
HETATM    2  C2    D T9001      -7.753  -6.584  10.667  1.00 83.68     0.109 A 
HETATM    3  C3    D T9001      -9.079  -6.596  10.119  1.00 82.47     0.044 A 
HETATM    4  C4    D T9001      -9.793  -5.420   9.857  1.00 82.50     0.088 A 
HETATM    5  C5    D T9001      -9.170  -4.149  10.151  1.00 84.12     0.055 A 
HETATM    6  C6    D T9001      -7.831  -4.131  10.704  1.00 83.53     0.021 A 
HETATM    7  N7    D T9001     -11.045  -5.531   9.336  1.00 81.78    -0.224 NA
HETATM    8  C8    D T9001     -11.717  -4.378   9.085  1.00 83.59     0.200 A 
HETATM    9  N9    D T9001     -11.255  -3.126   9.312  1.00 84.30    -0.205 NA
HETATM   10  C10   D T9001      -9.978  -2.997   9.847  1.00 85.59     0.166 A 
HETATM   11  N13   D T9001      -5.808  -5.280  11.501  1.00 82.67    -0.099 NA
ENDROOT
BRANCH  10  12
HETATM   12  N14   D T9001      -9.456  -1.679  10.102  1.00 86.44    -0.227 NA
BRANCH  12  13
HETATM   13  C15   D T9001     -10.200  -0.468  10.166  1.00 87.38     0.084 A 
HETATM   14  C16   D T9001     -11.448  -0.391  10.867  1.00 88.13     0.033 A 
HETATM   15  C17   D T9001     -12.186   0.813  10.921  1.00 88.88     0.087 A 
HETATM   16  C18   D T9001     -11.683   1.969  10.266  1.00 88.55     0.151 A 
HETATM   17 CL     D T9001     -13.690   0.844  11.778  1.00 89.26    -0.080 Cl
HETATM   18  C19   D T9001     -10.445   1.926   9.564  1.00 87.62     0.032 A 
HETATM   19  F21   D T9001     -12.373   3.121  10.304  1.00 88.92    -0.203 F 
HETATM   20  C20   D T9001      -9.706   0.711   9.512  1.00 87.82     0.021 A 
ENDBRANCH  12  13
ENDBRANCH  10  12
BRANCH   2  21
HETATM   21  O11   D T9001      -6.996  -7.720  10.943  1.00 85.44    -0.327 OA
HETATM   22  C12   D T9001      -7.685  -8.909  11.344  1.00 84.41     0.181 C 
ENDBRANCH   2  21
TORSDOF 3
