REMARK  3 active torsions:
REMARK  status: ('A' for Active; 'I' for Inactive)
REMARK    1  A    between atoms: C2_2  and  O11_20 
REMARK    2  A    between atoms: C10_10  and  N14_11 
REMARK    3  A    between atoms: N14_11  and  C15_12 
ROOT
HETATM    1  C1    D T9001      10.476   3.268  -4.964  1.00 83.47     0.092 A 
HETATM    2  C2    D T9001      10.372   4.652  -5.323  1.00 83.68     0.109 A 
HETATM    3  C3    D T9001       9.403   5.066  -6.297  1.00 82.47     0.044 A 
HETATM    4  C4    D T9001       8.538   4.161  -6.926  1.00 82.50     0.088 A 
HETATM    5  C5    D T9001       8.628   2.760  -6.581  1.00 84.12     0.055 A 
HETATM    6  C6    D T9001       9.604   2.337  -5.598  1.00 83.53     0.021 A 
HETATM    7  N7    D T9001       7.651   4.647  -7.836  1.00 81.78    -0.224 NA
HETATM    8  C8    D T9001       6.819   3.753  -8.429  1.00 83.59     0.200 A 
HETATM    9  N9    D T9001       6.795   2.419  -8.201  1.00 84.30    -0.205 NA
HETATM   10  C10   D T9001       7.699   1.907  -7.275  1.00 85.59     0.166 A 
HETATM   11  N13   D T9001      11.416   2.820  -4.006  1.00 82.67    -0.099 NA
ENDROOT
BRANCH  10  12
HETATM   12  N14   D T9001       7.703   0.492  -7.009  1.00 86.44    -0.227 NA
BRANCH  12  13
HETATM   13  C15   D T9001       7.100  -0.523  -7.804  1.00 87.38     0.084 A 
HETATM   14  C16   D T9001       7.222  -0.529  -9.232  1.00 88.13     0.033 A 
HETATM   15  C17   D T9001       6.615  -1.536 -10.016  1.00 88.88     0.087 A 
HETATM   16  C18   D T9001       5.868  -2.562  -9.377  1.00 88.55     0.151 A 
HETATM   17 CL     D T9001       6.793  -1.489 -11.737  1.00 89.26    -0.080 Cl
HETATM   18  C19   D T9001       5.731  -2.586  -7.960  1.00 87.62     0.032 A 
HETATM   19  F21   D T9001       5.282  -3.526 -10.107  1.00 88.92    -0.203 F 
HETATM   20  C20   D T9001       6.343  -1.569  -7.175  1.00 87.82     0.021 A 
ENDBRANCH  12  13
ENDBRANCH  10  12
BRANCH   2  21
HETATM   21  O11   D T9001      11.252   5.507  -4.664  1.00 85.44    -0.327 OA
HETATM   22  C12   D T9001      11.718   6.666  -5.365  1.00 84.41     0.181 C 
ENDBRANCH   2  21
TORSDOF 3
