REMARK  3 active torsions:
REMARK  status: ('A' for Active; 'I' for Inactive)
REMARK    1  A    between atoms: C2_2  and  O11_20 
REMARK    2  A    between atoms: C10_10  and  N14_11 
REMARK    3  A    between atoms: N14_11  and  C15_12 
ROOT
HETATM    1  C1    D T9001      -4.960  12.816 -11.954  1.00 83.47     0.092 A 
HETATM    2  C2    D T9001      -5.865  12.761 -13.064  1.00 83.68     0.109 A 
HETATM    3  C3    D T9001      -5.793  11.667 -13.990  1.00 82.47     0.044 A 
HETATM    4  C4    D T9001      -4.859  10.631 -13.855  1.00 82.50     0.088 A 
HETATM    5  C5    D T9001      -3.935  10.669 -12.745  1.00 84.12     0.055 A 
HETATM    6  C6    D T9001      -4.004  11.771 -11.807  1.00 83.53     0.021 A 
HETATM    7  N7    D T9001      -4.867   9.635 -14.782  1.00 81.78    -0.224 NA
HETATM    8  C8    D T9001      -3.957   8.639 -14.630  1.00 83.59     0.200 A 
HETATM    9  N9    D T9001      -3.037   8.550 -13.640  1.00 84.30    -0.205 NA
HETATM   10  C10   D T9001      -3.015   9.562 -12.687  1.00 85.59     0.166 A 
HETATM   11  N13   D T9001      -5.001  13.877 -11.018  1.00 82.67    -0.099 NA
ENDROOT
BRANCH  10  12
HETATM   12  N14   D T9001      -2.048   9.501 -11.622  1.00 86.44    -0.227 NA
BRANCH  12  13
HETATM   13  C15   D T9001      -0.885   8.683 -11.577  1.00 87.38     0.084 A 
HETATM   14  C16   D T9001      -0.024   8.541 -12.715  1.00 88.13     0.033 A 
HETATM   15  C17   D T9001       1.126   7.721 -12.666  1.00 88.88     0.087 A 
HETATM   16  C18   D T9001       1.435   7.023 -11.468  1.00 88.55     0.151 A 
HETATM   17 CL     D T9001       2.125   7.584 -14.073  1.00 89.26    -0.080 Cl
HETATM   18  C19   D T9001       0.602   7.145 -10.320  1.00 87.62     0.032 A 
HETATM   19  F21   D T9001       2.523   6.237 -11.406  1.00 88.92    -0.203 F 
HETATM   20  C20   D T9001      -0.556   7.971 -10.374  1.00 87.82     0.021 A 
ENDBRANCH  12  13
ENDBRANCH  10  12
BRANCH   2  21
HETATM   21  O11   D T9001      -6.774  13.813 -13.146  1.00 85.44    -0.327 OA
HETATM   22  C12   D T9001      -7.201  14.236 -14.446  1.00 84.41     0.181 C 
ENDBRANCH   2  21
TORSDOF 3
