REMARK  3 active torsions:
REMARK  status: ('A' for Active; 'I' for Inactive)
REMARK    1  A    between atoms: C2_2  and  O11_20 
REMARK    2  A    between atoms: C10_10  and  N14_11 
REMARK    3  A    between atoms: N14_11  and  C15_12 
ROOT
HETATM    1  C1    D T9001      -4.419  -0.097 -11.981  1.00 83.47     0.092 A 
HETATM    2  C2    D T9001      -5.278  -1.200 -12.299  1.00 83.68     0.109 A 
HETATM    3  C3    D T9001      -4.752  -2.535 -12.311  1.00 82.47     0.044 A 
HETATM    4  C4    D T9001      -3.409  -2.814 -12.021  1.00 82.50     0.088 A 
HETATM    5  C5    D T9001      -2.525  -1.716 -11.701  1.00 84.12     0.055 A 
HETATM    6  C6    D T9001      -3.052  -0.366 -11.687  1.00 83.53     0.021 A 
HETATM    7  N7    D T9001      -3.001  -4.111 -12.056  1.00 81.78    -0.224 NA
HETATM    8  C8    D T9001      -1.698  -4.360 -11.767  1.00 83.59     0.200 A 
HETATM    9  N9    D T9001      -0.765  -3.431 -11.452  1.00 84.30    -0.205 NA
HETATM   10  C10   D T9001      -1.167  -2.100 -11.415  1.00 85.59     0.166 A 
HETATM   11  N13   D T9001      -4.901   1.233 -11.956  1.00 82.67    -0.099 NA
ENDROOT
BRANCH  10  12
HETATM   12  N14   D T9001      -0.200  -1.085 -11.085  1.00 86.44    -0.227 NA
BRANCH  12  13
HETATM   13  C15   D T9001       1.216  -1.228 -11.086  1.00 87.38     0.084 A 
HETATM   14  C16   D T9001       1.900  -1.901 -12.151  1.00 88.13     0.033 A 
HETATM   15  C17   D T9001       3.306  -2.046 -12.142  1.00 88.88     0.087 A 
HETATM   16  C18   D T9001       4.055  -1.518 -11.057  1.00 88.55     0.151 A 
HETATM   17 CL     D T9001       4.078  -2.872 -13.453  1.00 89.26    -0.080 Cl
HETATM   18  C19   D T9001       3.405  -0.842  -9.985  1.00 87.62     0.032 A 
HETATM   19  F21   D T9001       5.392  -1.650 -11.031  1.00 88.92    -0.203 F 
HETATM   20  C20   D T9001       1.990  -0.700  -9.998  1.00 87.82     0.021 A 
ENDBRANCH  12  13
ENDBRANCH  10  12
BRANCH   2  21
HETATM   21  O11   D T9001      -6.601  -0.865 -12.574  1.00 85.44    -0.327 OA
HETATM   22  C12   D T9001      -7.320  -1.672 -13.513  1.00 84.41     0.181 C 
ENDBRANCH   2  21
TORSDOF 3
