REMARK  3 active torsions:
REMARK  status: ('A' for Active; 'I' for Inactive)
REMARK    1  A    between atoms: C2_2  and  O11_20 
REMARK    2  A    between atoms: C10_10  and  N14_11 
REMARK    3  A    between atoms: N14_11  and  C15_12 
ROOT
HETATM    1  C1    D T9001       4.657   4.904   9.473  1.00 83.47     0.092 A 
HETATM    2  C2    D T9001       4.706   3.752  10.325  1.00 83.68     0.109 A 
HETATM    3  C3    D T9001       3.537   2.937  10.491  1.00 82.47     0.044 A 
HETATM    4  C4    D T9001       2.326   3.223   9.846  1.00 82.50     0.088 A 
HETATM    5  C5    D T9001       2.254   4.381   8.985  1.00 84.12     0.055 A 
HETATM    6  C6    D T9001       3.432   5.208   8.813  1.00 83.53     0.021 A 
HETATM    7  N7    D T9001       1.271   2.392  10.064  1.00 81.78    -0.224 NA
HETATM    8  C8    D T9001       0.109   2.684   9.425  1.00 83.59     0.200 A 
HETATM    9  N9    D T9001      -0.097   3.733   8.594  1.00 84.30    -0.205 NA
HETATM   10  C10   D T9001       0.972   4.593   8.364  1.00 85.59     0.166 A 
HETATM   11  N13   D T9001       5.789   5.732   9.281  1.00 82.67    -0.099 NA
ENDROOT
BRANCH  10  12
HETATM   12  N14   D T9001       0.788   5.720   7.487  1.00 86.44    -0.227 NA
BRANCH  12  13
HETATM   13  C15   D T9001      -0.453   6.261   7.048  1.00 87.38     0.084 A 
HETATM   14  C16   D T9001      -1.548   6.456   7.953  1.00 88.13     0.033 A 
HETATM   15  C17   D T9001      -2.780   6.987   7.509  1.00 88.88     0.087 A 
HETATM   16  C18   D T9001      -2.938   7.332   6.140  1.00 88.55     0.151 A 
HETATM   17 CL     D T9001      -4.068   7.197   8.646  1.00 89.26    -0.080 Cl
HETATM   18  C19   D T9001      -1.869   7.152   5.216  1.00 87.62     0.032 A 
HETATM   19  F21   D T9001      -4.104   7.835   5.700  1.00 88.92    -0.203 F 
HETATM   20  C20   D T9001      -0.631   6.616   5.668  1.00 87.82     0.021 A 
ENDBRANCH  12  13
ENDBRANCH  10  12
BRANCH   2  21
HETATM   21  O11   D T9001       5.934   3.514  10.936  1.00 85.44    -0.327 OA
HETATM   22  C12   D T9001       5.936   2.905  12.232  1.00 84.41     0.181 C 
ENDBRANCH   2  21
TORSDOF 3
