REMARK  3 active torsions:
REMARK  status: ('A' for Active; 'I' for Inactive)
REMARK    1  A    between atoms: C2_2  and  O11_20 
REMARK    2  A    between atoms: C10_10  and  N14_11 
REMARK    3  A    between atoms: N14_11  and  C15_12 
ROOT
HETATM    1  C1    D T9001       5.047   0.276   4.486  1.00 83.47     0.092 A 
HETATM    2  C2    D T9001       5.315  -1.118   4.682  1.00 83.68     0.109 A 
HETATM    3  C3    D T9001       4.239  -2.066   4.638  1.00 82.47     0.044 A 
HETATM    4  C4    D T9001       2.911  -1.682   4.408  1.00 82.50     0.088 A 
HETATM    5  C5    D T9001       2.617  -0.281   4.211  1.00 84.12     0.055 A 
HETATM    6  C6    D T9001       3.701   0.680   4.254  1.00 83.53     0.021 A 
HETATM    7  N7    D T9001       1.958  -2.652   4.382  1.00 81.78    -0.224 NA
HETATM    8  C8    D T9001       0.679  -2.259   4.153  1.00 83.59     0.200 A 
HETATM    9  N9    D T9001       0.265  -0.985   3.953  1.00 84.30    -0.205 NA
HETATM   10  C10   D T9001       1.228   0.017   3.979  1.00 85.59     0.166 A 
HETATM   11  N13   D T9001       6.081   1.241   4.519  1.00 82.67    -0.099 NA
ENDROOT
BRANCH  10  12
HETATM   12  N14   D T9001       0.823   1.384   3.772  1.00 86.44    -0.227 NA
BRANCH  12  13
HETATM   13  C15   D T9001      -0.503   1.897   3.845  1.00 87.38     0.084 A 
HETATM   14  C16   D T9001      -1.395   1.520   4.902  1.00 88.13     0.033 A 
HETATM   15  C17   D T9001      -2.713   2.028   4.965  1.00 88.88     0.087 A 
HETATM   16  C18   D T9001      -3.162   2.927   3.961  1.00 88.55     0.151 A 
HETATM   17 CL     D T9001      -3.747   1.534   6.262  1.00 89.26    -0.080 Cl
HETATM   18  C19   D T9001      -2.299   3.322   2.899  1.00 87.62     0.032 A 
HETATM   19  F21   D T9001      -4.413   3.417   4.003  1.00 88.92    -0.203 F 
HETATM   20  C20   D T9001      -0.974   2.808   2.840  1.00 87.82     0.021 A 
ENDBRANCH  12  13
ENDBRANCH  10  12
BRANCH   2  21
HETATM   21  O11   D T9001       6.652  -1.443   4.901  1.00 85.44    -0.327 OA
HETATM   22  C12   D T9001       6.944  -2.563   5.743  1.00 84.41     0.181 C 
ENDBRANCH   2  21
TORSDOF 3
