REMARK  3 active torsions:
REMARK  status: ('A' for Active; 'I' for Inactive)
REMARK    1  A    between atoms: C2_2  and  O11_20 
REMARK    2  A    between atoms: C10_10  and  N14_11 
REMARK    3  A    between atoms: N14_11  and  C15_12 
ROOT
HETATM    1  C1    D T9001       2.836   4.723  12.703  1.00 83.47     0.092 A 
HETATM    2  C2    D T9001       3.329   3.578  13.412  1.00 83.68     0.109 A 
HETATM    3  C3    D T9001       2.537   2.384  13.479  1.00 82.47     0.044 A 
HETATM    4  C4    D T9001       1.278   2.284  12.871  1.00 82.50     0.088 A 
HETATM    5  C5    D T9001       0.761   3.427  12.154  1.00 84.12     0.055 A 
HETATM    6  C6    D T9001       1.557   4.636  12.083  1.00 83.53     0.021 A 
HETATM    7  N7    D T9001       0.601   1.110  12.987  1.00 81.78    -0.224 NA
HETATM    8  C8    D T9001      -0.614   1.034  12.386  1.00 83.59     0.200 A 
HETATM    9  N9    D T9001      -1.216   2.024  11.686  1.00 84.30    -0.205 NA
HETATM   10  C10   D T9001      -0.536   3.230  11.561  1.00 85.59     0.166 A 
HETATM   11  N13   D T9001       3.588   5.918  12.612  1.00 82.67    -0.099 NA
ENDROOT
BRANCH  10  12
HETATM   12  N14   D T9001      -1.148   4.306  10.824  1.00 86.44    -0.227 NA
BRANCH  12  13
HETATM   13  C15   D T9001      -2.518   4.409  10.451  1.00 87.38     0.084 A 
HETATM   14  C16   D T9001      -3.571   4.095  11.371  1.00 88.13     0.033 A 
HETATM   15  C17   D T9001      -4.929   4.192  10.992  1.00 88.88     0.087 A 
HETATM   16  C18   D T9001      -5.257   4.607   9.674  1.00 88.55     0.151 A 
HETATM   17 CL     D T9001      -6.158   3.796  12.145  1.00 89.26    -0.080 Cl
HETATM   18  C19   D T9001      -4.234   4.928   8.737  1.00 87.62     0.032 A 
HETATM   19  F21   D T9001      -6.543   4.702   9.295  1.00 88.92    -0.203 F 
HETATM   20  C20   D T9001      -2.868   4.828   9.123  1.00 87.82     0.021 A 
ENDBRANCH  12  13
ENDBRANCH  10  12
BRANCH   2  21
HETATM   21  O11   D T9001       4.586   3.732  13.992  1.00 85.44    -0.327 OA
HETATM   22  C12   D T9001       4.860   3.024  15.206  1.00 84.41     0.181 C 
ENDBRANCH   2  21
TORSDOF 3
