REMARK  7 active torsions:
REMARK  status: ('A' for Active; 'I' for Inactive)
REMARK    1  A    between atoms: C1_1  and  N13_22 
REMARK    2  A    between atoms: C2_2  and  O11_20 
REMARK    3  A    between atoms: C10_10  and  N14_11 
REMARK    4  A    between atoms: N14_11  and  C15_12 
REMARK       I    between atoms: N13_22  and  C26_23 
REMARK    5  A    between atoms: C26_23  and  C24_24 
REMARK    6  A    between atoms: C24_24  and  C23_25 
REMARK    7  A    between atoms: C23_25  and  C25_26 
ROOT
HETATM    1  C1    D T9001      -6.524  -4.663   2.564  1.00 30.38     0.107 A 
HETATM    2  C2    D T9001      -7.815  -4.772   1.944  1.00 29.65     0.113 A 
HETATM    3  C3    D T9001      -8.763  -3.716   2.132  1.00 28.21     0.045 A 
HETATM    4  C4    D T9001      -8.468  -2.577   2.909  1.00 27.21     0.088 A 
HETATM    5  C5    D T9001      -7.176  -2.476   3.543  1.00 26.27     0.055 A 
HETATM    6  C6    D T9001      -6.223  -3.523   3.358  1.00 29.22     0.026 A 
HETATM    7  N7    D T9001      -9.419  -1.617   3.028  1.00 25.99    -0.224 NA
HETATM    8  C8    D T9001      -9.108  -0.541   3.780  1.00 24.59     0.200 A 
HETATM    9  N9    D T9001      -7.942  -0.335   4.429  1.00 25.70    -0.205 NA
HETATM   10  C10   D T9001      -6.963  -1.302   4.319  1.00 27.48     0.166 A 
ENDROOT
BRANCH  10  11
HETATM   11  N14   D T9001      -5.717  -1.117   4.998  1.00 23.22    -0.227 NA
BRANCH  11  12
HETATM   12  C15   D T9001      -5.491  -0.335   6.159  1.00 24.25     0.084 A 
HETATM   13  C16   D T9001      -6.519  -0.111   7.132  1.00 25.06     0.033 A 
HETATM   14  C17   D T9001      -6.283   0.671   8.272  1.00 28.28     0.087 A 
HETATM   15  C18   D T9001      -5.010   1.254   8.477  1.00 25.55     0.151 A 
HETATM   16 CL     D T9001      -7.572   0.898   9.392  1.00 31.70    -0.080 Cl
HETATM   17  C19   D T9001      -3.969   1.052   7.535  1.00 24.70     0.032 A 
HETATM   18  F21   D T9001      -4.765   2.008   9.559  1.00 27.22    -0.203 F 
HETATM   19  C20   D T9001      -4.211   0.258   6.379  1.00 24.32     0.021 A 
ENDBRANCH  11  12
ENDBRANCH  10  11
BRANCH   1  20
HETATM   20  N13   D T9001      -5.587  -5.709   2.333  1.00 34.61    -0.210 NA
HETATM   21  C26   D T9001      -4.294  -5.449   1.845  1.00 36.24     0.256 C 
HETATM   22  O27   D T9001      -3.833  -4.340   1.572  1.00 39.97    -0.270 OA
BRANCH  21  23
HETATM   23  C24   D T9001      -3.495  -6.725   1.639  1.00 35.38     0.092 C 
BRANCH  23  24
HETATM   24  C23   D T9001      -2.093  -6.449   1.069  1.00 34.93     0.051 C 
BRANCH  24  25
HETATM   25  C25   D T9001      -1.263  -7.736   1.128  1.00 37.23     0.339 C 
HETATM   26  N33   D T9001       0.203  -7.441   0.923  1.00 41.10     0.618 N 
ENDBRANCH  24  25
ENDBRANCH  23  24
ENDBRANCH  21  23
ENDBRANCH   1  20
BRANCH   2  27
HETATM   27  O11   D T9001      -8.019  -5.929   1.198  1.00 31.09    -0.327 OA
HETATM   28  C12   D T9001      -9.273  -6.149   0.546  1.00 29.66     0.181 C 
ENDBRANCH   2  27
TORSDOF 7
