REMARK  7 active torsions:
REMARK  status: ('A' for Active; 'I' for Inactive)
REMARK    1  A    between atoms: C1_1  and  N13_22 
REMARK    2  A    between atoms: C2_2  and  O11_20 
REMARK    3  A    between atoms: C10_10  and  N14_11 
REMARK    4  A    between atoms: N14_11  and  C15_12 
REMARK       I    between atoms: N13_22  and  C26_23 
REMARK    5  A    between atoms: C26_23  and  C24_24 
REMARK    6  A    between atoms: C24_24  and  C23_25 
REMARK    7  A    between atoms: C23_25  and  C25_26 
ROOT
HETATM    1  C1    D T9001       4.923  -8.225  -8.561  1.00 30.38     0.107 A 
HETATM    2  C2    D T9001       5.832  -9.330  -8.438  1.00 29.65     0.113 A 
HETATM    3  C3    D T9001       7.196  -9.067  -8.091  1.00 28.21     0.045 A 
HETATM    4  C4    D T9001       7.671  -7.758  -7.869  1.00 27.21     0.088 A 
HETATM    5  C5    D T9001       6.760  -6.648  -8.008  1.00 26.27     0.055 A 
HETATM    6  C6    D T9001       5.397  -6.901  -8.351  1.00 29.22     0.026 A 
HETATM    7  N7    D T9001       8.975  -7.596  -7.534  1.00 25.99    -0.224 NA
HETATM    8  C8    D T9001       9.401  -6.332  -7.332  1.00 24.59     0.200 A 
HETATM    9  N9    D T9001       8.651  -5.214  -7.439  1.00 25.70    -0.205 NA
HETATM   10  C10   D T9001       7.322  -5.360  -7.780  1.00 27.48     0.166 A 
ENDROOT
BRANCH  10  11
HETATM   11  N14   D T9001       6.500  -4.196  -7.907  1.00 23.22    -0.227 NA
BRANCH  11  12
HETATM   12  C15   D T9001       6.932  -2.880  -8.213  1.00 24.25     0.084 A 
HETATM   13  C16   D T9001       8.106  -2.634  -8.996  1.00 25.06     0.033 A 
HETATM   14  C17   D T9001       8.527  -1.327  -9.285  1.00 28.28     0.087 A 
HETATM   15  C18   D T9001       7.786  -0.223  -8.800  1.00 25.55     0.151 A 
HETATM   16 CL     D T9001       9.952  -1.113 -10.228  1.00 31.70    -0.080 Cl
HETATM   17  C19   D T9001       6.618  -0.432  -8.022  1.00 24.70     0.032 A 
HETATM   18  F21   D T9001       8.172   1.034  -9.062  1.00 27.22    -0.203 F 
HETATM   19  C20   D T9001       6.193  -1.758  -7.731  1.00 24.32     0.021 A 
ENDBRANCH  11  12
ENDBRANCH  10  11
BRANCH   1  20
HETATM   20  N13   D T9001       3.565  -8.515  -8.872  1.00 34.61    -0.210 NA
HETATM   21  C26   D T9001       2.506  -8.037  -8.081  1.00 36.24     0.256 C 
HETATM   22  O27   D T9001       2.615  -7.339  -7.071  1.00 39.97    -0.270 OA
BRANCH  21  23
HETATM   23  C24   D T9001       1.154  -8.513  -8.587  1.00 35.38     0.092 C 
BRANCH  23  24
HETATM   24  C23   D T9001      -0.005  -8.023  -7.702  1.00 34.93     0.051 C 
BRANCH  24  25
HETATM   25  C25   D T9001      -1.335  -8.320  -8.404  1.00 37.23     0.339 C 
HETATM   26  N33   D T9001      -2.465  -7.552  -7.763  1.00 41.10     0.618 N 
ENDBRANCH  24  25
ENDBRANCH  23  24
ENDBRANCH  21  23
ENDBRANCH   1  20
BRANCH   2  27
HETATM   27  O11   D T9001       5.277 -10.584  -8.676  1.00 31.09    -0.327 OA
HETATM   28  C12   D T9001       6.093 -11.755  -8.593  1.00 29.66     0.181 C 
ENDBRANCH   2  27
TORSDOF 7
