REMARK  7 active torsions:
REMARK  status: ('A' for Active; 'I' for Inactive)
REMARK    1  A    between atoms: C1_1  and  N13_22 
REMARK    2  A    between atoms: C2_2  and  O11_20 
REMARK    3  A    between atoms: C10_10  and  N14_11 
REMARK    4  A    between atoms: N14_11  and  C15_12 
REMARK       I    between atoms: N13_22  and  C26_23 
REMARK    5  A    between atoms: C26_23  and  C24_24 
REMARK    6  A    between atoms: C24_24  and  C23_25 
REMARK    7  A    between atoms: C23_25  and  C25_26 
ROOT
HETATM    1  C1    D T9001       9.755   3.829  -4.641  1.00 30.38     0.107 A 
HETATM    2  C2    D T9001       9.908   5.154  -5.174  1.00 29.65     0.113 A 
HETATM    3  C3    D T9001       9.157   5.522  -6.336  1.00 28.21     0.045 A 
HETATM    4  C4    D T9001       8.278   4.623  -6.973  1.00 27.21     0.088 A 
HETATM    5  C5    D T9001       8.137   3.287  -6.445  1.00 26.27     0.055 A 
HETATM    6  C6    D T9001       8.879   2.913  -5.284  1.00 29.22     0.026 A 
HETATM    7  N7    D T9001       7.597   5.054  -8.063  1.00 25.99    -0.224 NA
HETATM    8  C8    D T9001       6.766   4.170  -8.652  1.00 24.59     0.200 A 
HETATM    9  N9    D T9001       6.555   2.894  -8.261  1.00 25.70    -0.205 NA
HETATM   10  C10   D T9001       7.239   2.439  -7.153  1.00 27.48     0.166 A 
ENDROOT
BRANCH  10  11
HETATM   11  N14   D T9001       7.043   1.091  -6.714  1.00 23.22    -0.227 NA
BRANCH  11  12
HETATM   12  C15   D T9001       6.627  -0.008  -7.507  1.00 24.25     0.084 A 
HETATM   13  C16   D T9001       6.909  -0.077  -8.910  1.00 25.06     0.033 A 
HETATM   14  C17   D T9001       6.486  -1.167  -9.684  1.00 28.28     0.087 A 
HETATM   15  C18   D T9001       5.766  -2.226  -9.079  1.00 25.55     0.151 A 
HETATM   16 CL     D T9001       6.859  -1.174 -11.366  1.00 31.70    -0.080 Cl
HETATM   17  C19   D T9001       5.471  -2.190  -7.693  1.00 24.70     0.032 A 
HETATM   18  F21   D T9001       5.350  -3.276  -9.803  1.00 27.22    -0.203 F 
HETATM   19  C20   D T9001       5.902  -1.083  -6.910  1.00 24.32     0.021 A 
ENDBRANCH  11  12
ENDBRANCH  10  11
BRANCH   1  20
HETATM   20  N13   D T9001      10.484   3.499  -3.464  1.00 34.61    -0.210 NA
HETATM   21  C26   D T9001       9.850   2.980  -2.322  1.00 36.24     0.256 C 
HETATM   22  O27   D T9001       8.645   2.753  -2.203  1.00 39.97    -0.270 OA
BRANCH  21  23
HETATM   23  C24   D T9001      10.828   2.747  -1.182  1.00 35.38     0.092 C 
BRANCH  23  24
HETATM   24  C23   D T9001      10.132   2.214   0.082  1.00 34.93     0.051 C 
BRANCH  24  25
HETATM   25  C25   D T9001      11.197   1.767   1.092  1.00 37.23     0.339 C 
HETATM   26  N33   D T9001      10.584   0.918   2.179  1.00 41.10     0.618 N 
ENDBRANCH  24  25
ENDBRANCH  23  24
ENDBRANCH  21  23
ENDBRANCH   1  20
BRANCH   2  27
HETATM   27  O11   D T9001      10.797   5.972  -4.483  1.00 31.09    -0.327 OA
HETATM   28  C12   D T9001      11.036   7.309  -4.931  1.00 29.66     0.181 C 
ENDBRANCH   2  27
TORSDOF 7
