REMARK  7 active torsions:
REMARK  status: ('A' for Active; 'I' for Inactive)
REMARK    1  A    between atoms: C1_1  and  N13_22 
REMARK    2  A    between atoms: C2_2  and  O11_20 
REMARK    3  A    between atoms: C10_10  and  N14_11 
REMARK    4  A    between atoms: N14_11  and  C15_12 
REMARK       I    between atoms: N13_22  and  C26_23 
REMARK    5  A    between atoms: C26_23  and  C24_24 
REMARK    6  A    between atoms: C24_24  and  C23_25 
REMARK    7  A    between atoms: C23_25  and  C25_26 
ROOT
HETATM    1  C1    D T9001      -2.132 -10.676  40.107  1.00 30.38     0.107 A 
HETATM    2  C2    D T9001      -2.348  -9.997  41.354  1.00 29.65     0.113 A 
HETATM    3  C3    D T9001      -2.179  -8.576  41.405  1.00 28.21     0.045 A 
HETATM    4  C4    D T9001      -1.804  -7.827  40.271  1.00 27.21     0.088 A 
HETATM    5  C5    D T9001      -1.573  -8.513  39.023  1.00 26.27     0.055 A 
HETATM    6  C6    D T9001      -1.743  -9.929  38.962  1.00 29.22     0.026 A 
HETATM    7  N7    D T9001      -1.675  -6.484  40.403  1.00 25.99    -0.224 NA
HETATM    8  C8    D T9001      -1.313  -5.795  39.301  1.00 24.59     0.200 A 
HETATM    9  N9    D T9001      -1.060  -6.321  38.083  1.00 25.70    -0.205 NA
HETATM   10  C10   D T9001      -1.187  -7.686  37.931  1.00 27.48     0.166 A 
ENDROOT
BRANCH  10  11
HETATM   11  N14   D T9001      -0.922  -8.276  36.654  1.00 23.22    -0.227 NA
BRANCH  11  12
HETATM   12  C15   D T9001      -0.084  -7.755  35.635  1.00 24.25     0.084 A 
HETATM   13  C16   D T9001       1.039  -6.919  35.935  1.00 25.06     0.033 A 
HETATM   14  C17   D T9001       1.856  -6.404  34.917  1.00 28.28     0.087 A 
HETATM   15  C18   D T9001       1.574  -6.710  33.564  1.00 25.55     0.151 A 
HETATM   16 CL     D T9001       3.184  -5.401  35.358  1.00 31.70    -0.080 Cl
HETATM   17  C19   D T9001       0.470  -7.536  33.232  1.00 24.70     0.032 A 
HETATM   18  F21   D T9001       2.340  -6.226  32.575  1.00 27.22    -0.203 F 
HETATM   19  C20   D T9001      -0.356  -8.057  34.267  1.00 24.32     0.021 A 
ENDBRANCH  11  12
ENDBRANCH  10  11
BRANCH   1  20
HETATM   20  N13   D T9001      -2.341 -12.083  40.073  1.00 34.61    -0.210 NA
HETATM   21  C26   D T9001      -3.198 -12.682  39.133  1.00 36.24     0.256 C 
HETATM   22  O27   D T9001      -3.840 -12.093  38.262  1.00 39.97    -0.270 OA
BRANCH  21  23
HETATM   23  C24   D T9001      -3.292 -14.187  39.322  1.00 35.38     0.092 C 
BRANCH  23  24
HETATM   24  C23   D T9001      -4.258 -14.841  38.319  1.00 34.93     0.051 C 
BRANCH  24  25
HETATM   25  C25   D T9001      -4.110 -16.365  38.399  1.00 37.23     0.339 C 
HETATM   26  N33   D T9001      -4.756 -17.030  37.208  1.00 41.10     0.618 N 
ENDBRANCH  24  25
ENDBRANCH  23  24
ENDBRANCH  21  23
ENDBRANCH   1  20
BRANCH   2  27
HETATM   27  O11   D T9001      -2.713 -10.815  42.420  1.00 31.09    -0.327 OA
HETATM   28  C12   D T9001      -2.942 -10.248  43.712  1.00 29.66     0.181 C 
ENDBRANCH   2  27
TORSDOF 7
