REMARK  7 active torsions:
REMARK  status: ('A' for Active; 'I' for Inactive)
REMARK    1  A    between atoms: C1_1  and  N13_22 
REMARK    2  A    between atoms: C2_2  and  O11_20 
REMARK    3  A    between atoms: C10_10  and  N14_11 
REMARK    4  A    between atoms: N14_11  and  C15_12 
REMARK       I    between atoms: N13_22  and  C26_23 
REMARK    5  A    between atoms: C26_23  and  C24_24 
REMARK    6  A    between atoms: C24_24  and  C23_25 
REMARK    7  A    between atoms: C23_25  and  C25_26 
ROOT
HETATM    1  C1    D T9001      -5.676  -2.581 -12.199  1.00 30.38     0.107 A 
HETATM    2  C2    D T9001      -6.282  -3.671 -12.911  1.00 29.65     0.113 A 
HETATM    3  C3    D T9001      -5.501  -4.841 -13.177  1.00 28.21     0.045 A 
HETATM    4  C4    D T9001      -4.158  -4.953 -12.765  1.00 27.21     0.088 A 
HETATM    5  C5    D T9001      -3.546  -3.851 -12.062  1.00 26.27     0.055 A 
HETATM    6  C6    D T9001      -4.318  -2.681 -11.790  1.00 29.22     0.026 A 
HETATM    7  N7    D T9001      -3.492  -6.099 -13.049  1.00 25.99    -0.224 NA
HETATM    8  C8    D T9001      -2.207  -6.175 -12.644  1.00 24.59     0.200 A 
HETATM    9  N9    D T9001      -1.523  -5.213 -11.989  1.00 25.70    -0.205 NA
HETATM   10  C10   D T9001      -2.184  -4.039 -11.692  1.00 27.48     0.166 A 
ENDROOT
BRANCH  10  11
HETATM   11  N14   D T9001      -1.487  -2.997 -11.004  1.00 23.22    -0.227 NA
BRANCH  11  12
HETATM   12  C15   D T9001      -0.086  -2.773 -10.997  1.00 24.25     0.084 A 
HETATM   13  C16   D T9001       0.746  -3.159 -12.097  1.00 25.06     0.033 A 
HETATM   14  C17   D T9001       2.131  -2.938 -12.074  1.00 28.28     0.087 A 
HETATM   15  C18   D T9001       2.729  -2.324 -10.947  1.00 25.55     0.151 A 
HETATM   16 CL     D T9001       3.065  -3.435 -13.433  1.00 31.70    -0.080 Cl
HETATM   17  C19   D T9001       1.935  -1.929  -9.841  1.00 24.70     0.032 A 
HETATM   18  F21   D T9001       4.052  -2.107 -10.904  1.00 27.22    -0.203 F 
HETATM   19  C20   D T9001       0.530  -2.154  -9.868  1.00 24.32     0.021 A 
ENDBRANCH  11  12
ENDBRANCH  10  11
BRANCH   1  20
HETATM   20  N13   D T9001      -6.483  -1.443 -11.915  1.00 34.61    -0.210 NA
HETATM   21  C26   D T9001      -6.620  -0.941 -10.609  1.00 36.24     0.256 C 
HETATM   22  O27   D T9001      -6.084  -1.398  -9.598  1.00 39.97    -0.270 OA
BRANCH  21  23
HETATM   23  C24   D T9001      -7.564   0.249 -10.551  1.00 35.38     0.092 C 
BRANCH  23  24
HETATM   24  C23   D T9001      -7.747   0.778  -9.118  1.00 34.93     0.051 C 
BRANCH  24  25
HETATM   25  C25   D T9001      -8.497   2.114  -9.167  1.00 37.23     0.339 C 
HETATM   26  N33   D T9001      -8.387   2.841  -7.850  1.00 41.10     0.618 N 
ENDBRANCH  24  25
ENDBRANCH  23  24
ENDBRANCH  21  23
ENDBRANCH   1  20
BRANCH   2  27
HETATM   27  O11   D T9001      -7.609  -3.473 -13.280  1.00 31.09    -0.327 OA
HETATM   28  C12   D T9001      -8.310  -4.488 -14.004  1.00 29.66     0.181 C 
ENDBRANCH   2  27
TORSDOF 7
