REMARK  7 active torsions:
REMARK  status: ('A' for Active; 'I' for Inactive)
REMARK    1  A    between atoms: C1_1  and  N13_22 
REMARK    2  A    between atoms: C2_2  and  O11_20 
REMARK    3  A    between atoms: C10_10  and  N14_11 
REMARK    4  A    between atoms: N14_11  and  C15_12 
REMARK       I    between atoms: N13_22  and  C26_23 
REMARK    5  A    between atoms: C26_23  and  C24_24 
REMARK    6  A    between atoms: C24_24  and  C23_25 
REMARK    7  A    between atoms: C23_25  and  C25_26 
ROOT
HETATM    1  C1    D T9001      -5.422  12.293   2.669  1.00 30.38     0.107 A 
HETATM    2  C2    D T9001      -6.614  12.923   3.165  1.00 29.65     0.113 A 
HETATM    3  C3    D T9001      -7.665  13.233   2.243  1.00 28.21     0.045 A 
HETATM    4  C4    D T9001      -7.564  12.941   0.868  1.00 27.21     0.088 A 
HETATM    5  C5    D T9001      -6.360  12.321   0.369  1.00 26.27     0.055 A 
HETATM    6  C6    D T9001      -5.307  12.006   1.281  1.00 29.22     0.026 A 
HETATM    7  N7    D T9001      -8.609  13.258   0.065  1.00 25.99    -0.224 NA
HETATM    8  C8    D T9001      -8.481  12.969  -1.246  1.00 24.59     0.200 A 
HETATM    9  N9    D T9001      -7.406  12.401  -1.833  1.00 25.70    -0.205 NA
HETATM   10  C10   D T9001      -6.333  12.071  -1.032  1.00 27.48     0.166 A 
ENDROOT
BRANCH  10  11
HETATM   11  N14   D T9001      -5.176  11.472  -1.623  1.00 23.22    -0.227 NA
BRANCH  11  12
HETATM   12  C15   D T9001      -4.749  11.596  -2.969  1.00 24.25     0.084 A 
HETATM   13  C16   D T9001      -5.046  12.758  -3.752  1.00 25.06     0.033 A 
HETATM   14  C17   D T9001      -4.624  12.865  -5.085  1.00 28.28     0.087 A 
HETATM   15  C18   D T9001      -3.889  11.811  -5.679  1.00 25.55     0.151 A 
HETATM   16 CL     D T9001      -5.026  14.292  -5.962  1.00 31.70    -0.080 Cl
HETATM   17  C19   D T9001      -3.577  10.647  -4.933  1.00 24.70     0.032 A 
HETATM   18  F21   D T9001      -3.479  11.892  -6.954  1.00 27.22    -0.203 F 
HETATM   19  C20   D T9001      -4.006  10.541  -3.580  1.00 24.32     0.021 A 
ENDBRANCH  11  12
ENDBRANCH  10  11
BRANCH   1  20
HETATM   20  N13   D T9001      -4.406  11.962   3.609  1.00 34.61    -0.210 NA
HETATM   21  C26   D T9001      -3.884  10.661   3.708  1.00 36.24     0.256 C 
HETATM   22  O27   D T9001      -4.221   9.693   3.025  1.00 39.97    -0.270 OA
BRANCH  21  23
HETATM   23  C24   D T9001      -2.844  10.544   4.810  1.00 35.38     0.092 C 
BRANCH  23  24
HETATM   24  C23   D T9001      -2.298   9.113   4.946  1.00 34.93     0.051 C 
BRANCH  24  25
HETATM   25  C25   D T9001      -1.088   9.123   5.888  1.00 37.23     0.339 C 
HETATM   26  N33   D T9001      -0.307   7.837   5.776  1.00 41.10     0.618 N 
ENDBRANCH  24  25
ENDBRANCH  23  24
ENDBRANCH  21  23
ENDBRANCH   1  20
BRANCH   2  27
HETATM   27  O11   D T9001      -6.626  13.175   4.533  1.00 31.09    -0.327 OA
HETATM   28  C12   D T9001      -7.757  13.810   5.134  1.00 29.66     0.181 C 
ENDBRANCH   2  27
TORSDOF 7
