REMARK  7 active torsions:
REMARK  status: ('A' for Active; 'I' for Inactive)
REMARK    1  A    between atoms: C1_1  and  N13_22 
REMARK    2  A    between atoms: C2_2  and  O11_20 
REMARK    3  A    between atoms: C10_10  and  N14_11 
REMARK    4  A    between atoms: N14_11  and  C15_12 
REMARK       I    between atoms: N13_22  and  C26_23 
REMARK    5  A    between atoms: C26_23  and  C24_24 
REMARK    6  A    between atoms: C24_24  and  C23_25 
REMARK    7  A    between atoms: C23_25  and  C25_26 
ROOT
HETATM    1  C1    D T9001      16.534  10.370   0.108  1.00 30.38     0.107 A 
HETATM    2  C2    D T9001      16.929   9.673   1.300  1.00 29.65     0.113 A 
HETATM    3  C3    D T9001      15.916   9.236   2.212  1.00 28.21     0.045 A 
HETATM    4  C4    D T9001      14.546   9.473   1.977  1.00 27.21     0.088 A 
HETATM    5  C5    D T9001      14.152  10.186   0.786  1.00 26.27     0.055 A 
HETATM    6  C6    D T9001      15.156  10.623  -0.131  1.00 29.22     0.026 A 
HETATM    7  N7    D T9001      13.650   9.017   2.887  1.00 25.99    -0.224 NA
HETATM    8  C8    D T9001      12.348   9.261   2.636  1.00 24.59     0.200 A 
HETATM    9  N9    D T9001      11.855   9.923   1.566  1.00 25.70    -0.205 NA
HETATM   10  C10   D T9001      12.753  10.394   0.630  1.00 27.48     0.166 A 
ENDROOT
BRANCH  10  11
HETATM   11  N14   D T9001      12.265  11.104  -0.512  1.00 23.22    -0.227 NA
BRANCH  11  12
HETATM   12  C15   D T9001      11.048  11.827  -0.607  1.00 24.25     0.084 A 
HETATM   13  C16   D T9001      10.441  12.437   0.538  1.00 25.06     0.033 A 
HETATM   14  C17   D T9001       9.234  13.143   0.431  1.00 28.28     0.087 A 
HETATM   15  C18   D T9001       8.594  13.262  -0.827  1.00 25.55     0.151 A 
HETATM   16 CL     D T9001       8.563  13.843   1.854  1.00 31.70    -0.080 Cl
HETATM   17  C19   D T9001       9.169  12.671  -1.981  1.00 24.70     0.032 A 
HETATM   18  F21   D T9001       7.438  13.930  -0.950  1.00 27.22    -0.203 F 
HETATM   19  C20   D T9001      10.394  11.956  -1.869  1.00 24.32     0.021 A 
ENDBRANCH  11  12
ENDBRANCH  10  11
BRANCH   1  20
HETATM   20  N13   D T9001      17.557  10.762  -0.801  1.00 34.61    -0.210 NA
HETATM   21  C26   D T9001      17.512  10.411  -2.161  1.00 36.24     0.256 C 
HETATM   22  O27   D T9001      16.626   9.755  -2.710  1.00 39.97    -0.270 OA
BRANCH  21  23
HETATM   23  C24   D T9001      18.733  10.905  -2.919  1.00 35.38     0.092 C 
BRANCH  23  24
HETATM   24  C23   D T9001      18.707  10.490  -4.400  1.00 34.93     0.051 C 
BRANCH  24  25
HETATM   25  C25   D T9001      19.822  11.229  -5.150  1.00 37.23     0.339 C 
HETATM   26  N33   D T9001      19.618  11.139  -6.642  1.00 41.10     0.618 N 
ENDBRANCH  24  25
ENDBRANCH  23  24
ENDBRANCH  21  23
ENDBRANCH   1  20
BRANCH   2  27
HETATM   27  O11   D T9001      18.300   9.486   1.450  1.00 31.09    -0.327 OA
HETATM   28  C12   D T9001      18.808   8.814   2.606  1.00 29.66     0.181 C 
ENDBRANCH   2  27
TORSDOF 7
