REMARK  7 active torsions:
REMARK  status: ('A' for Active; 'I' for Inactive)
REMARK    1  A    between atoms: C1_1  and  N13_22 
REMARK    2  A    between atoms: C2_2  and  O11_20 
REMARK    3  A    between atoms: C10_10  and  N14_11 
REMARK    4  A    between atoms: N14_11  and  C15_12 
REMARK       I    between atoms: N13_22  and  C26_23 
REMARK    5  A    between atoms: C26_23  and  C24_24 
REMARK    6  A    between atoms: C24_24  and  C23_25 
REMARK    7  A    between atoms: C23_25  and  C25_26 
ROOT
HETATM    1  C1    D T9001     -12.099  -6.766   8.553  1.00 30.38     0.107 A 
HETATM    2  C2    D T9001     -13.248  -7.625   8.480  1.00 29.65     0.113 A 
HETATM    3  C3    D T9001     -14.553  -7.039   8.542  1.00 28.21     0.045 A 
HETATM    4  C4    D T9001     -14.742  -5.649   8.676  1.00 27.21     0.088 A 
HETATM    5  C5    D T9001     -13.587  -4.789   8.765  1.00 26.27     0.055 A 
HETATM    6  C6    D T9001     -12.282  -5.364   8.701  1.00 29.22     0.026 A 
HETATM    7  N7    D T9001     -16.012  -5.174   8.718  1.00 25.99    -0.224 NA
HETATM    8  C8    D T9001     -16.161  -3.840   8.850  1.00 24.59     0.200 A 
HETATM    9  N9    D T9001     -15.163  -2.935   8.951  1.00 25.70    -0.205 NA
HETATM   10  C10   D T9001     -13.865  -3.400   8.911  1.00 27.48     0.166 A 
ENDROOT
BRANCH  10  11
HETATM   11  N14   D T9001     -12.784  -2.469   9.021  1.00 23.22    -0.227 NA
BRANCH  11  12
HETATM   12  C15   D T9001     -12.819  -1.197   9.647  1.00 24.25     0.084 A 
HETATM   13  C16   D T9001     -13.709  -0.915  10.734  1.00 25.06     0.033 A 
HETATM   14  C17   D T9001     -13.738   0.350  11.339  1.00 28.28     0.087 A 
HETATM   15  C18   D T9001     -12.878   1.375  10.877  1.00 25.55     0.151 A 
HETATM   16 CL     D T9001     -14.840   0.614  12.637  1.00 31.70    -0.080 Cl
HETATM   17  C19   D T9001     -11.984   1.129   9.803  1.00 24.70     0.032 A 
HETATM   18  F21   D T9001     -12.892   2.592  11.439  1.00 27.22    -0.203 F 
HETATM   19  C20   D T9001     -11.956  -0.156   9.191  1.00 24.32     0.021 A 
ENDBRANCH  11  12
ENDBRANCH  10  11
BRANCH   1  20
HETATM   20  N13   D T9001     -10.813  -7.368   8.453  1.00 34.61    -0.210 NA
HETATM   21  C26   D T9001      -9.865  -6.934   7.511  1.00 36.24     0.256 C 
HETATM   22  O27   D T9001     -10.018  -6.022   6.698  1.00 39.97    -0.270 OA
BRANCH  21  23
HETATM   23  C24   D T9001      -8.587  -7.756   7.567  1.00 35.38     0.092 C 
BRANCH  23  24
HETATM   24  C23   D T9001      -7.561  -7.309   6.513  1.00 34.93     0.051 C 
BRANCH  24  25
HETATM   25  C25   D T9001      -6.220  -7.999   6.791  1.00 37.23     0.339 C 
HETATM   26  N33   D T9001      -5.104  -7.335   6.024  1.00 41.10     0.618 N 
ENDBRANCH  24  25
ENDBRANCH  23  24
ENDBRANCH  21  23
ENDBRANCH   1  20
BRANCH   2  27
HETATM   27  O11   D T9001     -12.967  -8.982   8.350  1.00 31.09    -0.327 OA
HETATM   28  C12   D T9001     -14.035  -9.930   8.280  1.00 29.66     0.181 C 
ENDBRANCH   2  27
TORSDOF 7
