REMARK  7 active torsions:
REMARK  status: ('A' for Active; 'I' for Inactive)
REMARK    1  A    between atoms: C1_1  and  N13_22 
REMARK    2  A    between atoms: C2_2  and  O11_20 
REMARK    3  A    between atoms: C10_10  and  N14_11 
REMARK    4  A    between atoms: N14_11  and  C15_12 
REMARK       I    between atoms: N13_22  and  C26_23 
REMARK    5  A    between atoms: C26_23  and  C24_24 
REMARK    6  A    between atoms: C24_24  and  C23_25 
REMARK    7  A    between atoms: C23_25  and  C25_26 
ROOT
HETATM    1  C1    D T9001       9.267   8.298   6.796  1.00 30.38     0.107 A 
HETATM    2  C2    D T9001       9.617   7.473   7.919  1.00 29.65     0.113 A 
HETATM    3  C3    D T9001       8.639   6.570   8.445  1.00 28.21     0.045 A 
HETATM    4  C4    D T9001       7.344   6.469   7.896  1.00 27.21     0.088 A 
HETATM    5  C5    D T9001       6.988   7.308   6.778  1.00 26.27     0.055 A 
HETATM    6  C6    D T9001       7.959   8.210   6.245  1.00 29.22     0.026 A 
HETATM    7  N7    D T9001       6.481   5.581   8.448  1.00 25.99    -0.224 NA
HETATM    8  C8    D T9001       5.249   5.509   7.904  1.00 24.59     0.200 A 
HETATM    9  N9    D T9001       4.795   6.245   6.866  1.00 25.70    -0.205 NA
HETATM   10  C10   D T9001       5.660   7.154   6.292  1.00 27.48     0.166 A 
ENDROOT
BRANCH  10  11
HETATM   11  N14   D T9001       5.209   7.952   5.194  1.00 23.22    -0.227 NA
BRANCH  11  12
HETATM   12  C15   D T9001       3.869   8.313   4.900  1.00 24.25     0.084 A 
HETATM   13  C16   D T9001       2.879   8.441   5.926  1.00 25.06     0.033 A 
HETATM   14  C17   D T9001       1.555   8.791   5.620  1.00 28.28     0.087 A 
HETATM   15  C18   D T9001       1.180   9.026   4.276  1.00 25.55     0.151 A 
HETATM   16 CL     D T9001       0.421   8.919   6.910  1.00 31.70    -0.080 Cl
HETATM   17  C19   D T9001       2.136   8.909   3.235  1.00 24.70     0.032 A 
HETATM   18  F21   D T9001      -0.080   9.359   3.961  1.00 27.22    -0.203 F 
HETATM   19  C20   D T9001       3.478   8.554   3.548  1.00 24.32     0.021 A 
ENDBRANCH  11  12
ENDBRANCH  10  11
BRANCH   1  20
HETATM   20  N13   D T9001      10.267   9.162   6.269  1.00 34.61    -0.210 NA
HETATM   21  C26   D T9001      10.616   9.146   4.907  1.00 36.24     0.256 C 
HETATM   22  O27   D T9001      10.121   8.422   4.042  1.00 39.97    -0.270 OA
BRANCH  21  23
HETATM   23  C24   D T9001      11.736  10.124   4.593  1.00 35.38     0.092 C 
BRANCH  23  24
HETATM   24  C23   D T9001      12.146  10.083   3.111  1.00 34.93     0.051 C 
BRANCH  24  25
HETATM   25  C25   D T9001      13.087  11.257   2.817  1.00 37.23     0.339 C 
HETATM   26  N33   D T9001      13.229  11.473   1.330  1.00 41.10     0.618 N 
ENDBRANCH  24  25
ENDBRANCH  23  24
ENDBRANCH  21  23
ENDBRANCH   1  20
BRANCH   2  27
HETATM   27  O11   D T9001      10.914   7.641   8.395  1.00 31.09    -0.327 OA
HETATM   28  C12   D T9001      11.368   6.880   9.518  1.00 29.66     0.181 C 
ENDBRANCH   2  27
TORSDOF 7
