REMARK  24 active torsions:
REMARK  status: ('A' for Active; 'I' for Inactive)
REMARK    1  A    between atoms: CAK_2  and  CAM_3 
REMARK    2  A    between atoms: CAM_3  and  NAS_4 
REMARK    3  A    between atoms: NAS_4  and  CAO_5 
REMARK    4  A    between atoms: CAO_5  and  CAQ_6 
REMARK    5  A    between atoms: CAQ_6  and  NAU_7 
REMARK    6  A    between atoms: NAU_7  and  CAY_8 
REMARK    7  A    between atoms: CAZ_25  and  NAV_26 
REMARK    8  A    between atoms: NAV_26  and  CAR_27 
REMARK    9  A    between atoms: CAR_27  and  CAP_28 
REMARK   10  A    between atoms: CAP_28  and  NAT_29 
REMARK   11  A    between atoms: NAT_29  and  CAN_30 
REMARK   12  A    between atoms: CAN_30  and  CAL_31 
REMARK   13  A    between atoms: CAK_34  and  CAM_35 
REMARK   14  A    between atoms: CAM_35  and  NAS_36 
REMARK   15  A    between atoms: NAS_36  and  CAO_37 
REMARK   16  A    between atoms: CAO_37  and  CAQ_38 
REMARK   17  A    between atoms: CAQ_38  and  NAU_39 
REMARK   18  A    between atoms: NAU_39  and  CAY_40 
REMARK   19  A    between atoms: CAZ_57  and  NAV_58 
REMARK   20  A    between atoms: NAV_58  and  CAR_59 
REMARK   21  A    between atoms: CAR_59  and  CAP_60 
REMARK   22  A    between atoms: CAP_60  and  NAT_61 
REMARK   23  A    between atoms: NAT_61  and  CAN_62 
REMARK   24  A    between atoms: CAN_62  and  CAL_63 
ROOT
HETATM    1  CAY   D T 500       2.930   7.930   5.726  1.00 41.84     0.079 A 
HETATM    2  CAI   D T 500       4.278   8.240   6.061  1.00 42.25     0.020 A 
HETATM    3  CAJ   D T 500       4.999   7.579   7.068  1.00 39.39     0.020 A 
HETATM    4  CBE   D T 500       2.234   6.848   6.488  1.00 38.78     0.061 A 
HETATM    5  CBA   D T 500       0.826   6.454   6.194  1.00 38.89     0.199 A 
HETATM    6  OAA   D T 500       0.189   7.048   5.295  1.00 42.15    -0.286 OA
HETATM    7  CBC   D T 500       0.191   5.347   6.980  1.00 38.64     0.069 A 
HETATM    8  CAW   D T 500      -1.219   4.901   6.752  1.00 41.35     0.134 A 
HETATM    9  OAE   D T 500      -1.987   5.502   5.774  1.00 47.27    -0.190 OA
HETATM   10  CAG   D T 500      -1.741   3.859   7.537  1.00 39.87     0.030 A 
HETATM   11  CAH   D T 500      -0.992   3.221   8.541  1.00 38.23     0.030 A 
HETATM   12  CAX   D T 500       0.318   3.596   8.820  1.00 35.83     0.134 A 
HETATM   13  OAF   D T 500       1.034   2.966   9.778  1.00 35.23    -0.190 OA
HETATM   14  CBD   D T 500       0.964   4.667   8.043  1.00 35.97     0.069 A 
HETATM   15  CBB   D T 500       2.362   5.069   8.333  1.00 36.65     0.199 A 
HETATM   16  OAB   D T 500       2.999   4.495   9.230  1.00 36.71    -0.286 OA
HETATM   17  CBF   D T 500       3.005   6.153   7.555  1.00 37.01     0.061 A 
HETATM   18  CAZ   D T 500       4.412   6.562   7.822  1.00 39.54     0.079 A 
ENDROOT
BRANCH   1  19
HETATM   19  NAU   D T 500       2.266   8.592   4.735  1.00 41.74    -0.269 NA
BRANCH  19  20
HETATM   20  CAQ   D T 500       2.505   8.221   3.342  1.00 47.43     0.151 C 
BRANCH  20  21
HETATM   21  CAO   D T 500       3.800   8.790   2.753  1.00 48.34     0.146 C 
BRANCH  21  22
HETATM   22  NAS   D T 500       3.756   8.887   1.313  1.00 49.29    -0.291 NA
BRANCH  22  23
HETATM   23  CAM   D T 500       4.614   9.824   0.629  1.00 49.13     0.155 C 
BRANCH  23  24
HETATM   24  CAK   D T 500       3.982  10.223  -0.694  1.00 54.80     0.208 C 
HETATM   25  OAC   D T 500       4.849   9.856  -1.776  1.00 60.78    -0.218 OA
ENDBRANCH  23  24
ENDBRANCH  22  23
ENDBRANCH  21  22
ENDBRANCH  20  21
ENDBRANCH  19  20
ENDBRANCH   1  19
BRANCH  18  26
HETATM   26  NAV   D T 500       5.121   5.921   8.776  1.00 45.82    -0.269 NA
BRANCH  26  27
HETATM   27  CAR   D T 500       5.527   4.552   8.472  1.00 50.37     0.151 C 
BRANCH  27  28
HETATM   28  CAP   D T 500       6.636   4.017   9.352  1.00 56.30     0.146 C 
BRANCH  28  29
HETATM   29  NAT   D T 500       7.929   4.338   8.765  1.00 57.16    -0.291 NA
BRANCH  29  30
HETATM   30  CAN   D T 500       9.127   3.944   9.490  1.00 55.30     0.155 C 
BRANCH  30  31
HETATM   31  CAL   D T 500       9.376   2.448   9.375  1.00 53.22     0.208 C 
HETATM   32  OAD   D T 500       9.642   2.213   7.991  1.00 54.28    -0.218 OA
ENDBRANCH  30  31
ENDBRANCH  29  30
ENDBRANCH  28  29
ENDBRANCH  27  28
ENDBRANCH  26  27
ENDBRANCH  18  26
TORSDOF 24
