REMARK  24 active torsions:
REMARK  status: ('A' for Active; 'I' for Inactive)
REMARK    1  A    between atoms: CAK_2  and  CAM_3 
REMARK    2  A    between atoms: CAM_3  and  NAS_4 
REMARK    3  A    between atoms: NAS_4  and  CAO_5 
REMARK    4  A    between atoms: CAO_5  and  CAQ_6 
REMARK    5  A    between atoms: CAQ_6  and  NAU_7 
REMARK    6  A    between atoms: NAU_7  and  CAY_8 
REMARK    7  A    between atoms: CAZ_25  and  NAV_26 
REMARK    8  A    between atoms: NAV_26  and  CAR_27 
REMARK    9  A    between atoms: CAR_27  and  CAP_28 
REMARK   10  A    between atoms: CAP_28  and  NAT_29 
REMARK   11  A    between atoms: NAT_29  and  CAN_30 
REMARK   12  A    between atoms: CAN_30  and  CAL_31 
REMARK   13  A    between atoms: CAK_34  and  CAM_35 
REMARK   14  A    between atoms: CAM_35  and  NAS_36 
REMARK   15  A    between atoms: NAS_36  and  CAO_37 
REMARK   16  A    between atoms: CAO_37  and  CAQ_38 
REMARK   17  A    between atoms: CAQ_38  and  NAU_39 
REMARK   18  A    between atoms: NAU_39  and  CAY_40 
REMARK   19  A    between atoms: CAZ_57  and  NAV_58 
REMARK   20  A    between atoms: NAV_58  and  CAR_59 
REMARK   21  A    between atoms: CAR_59  and  CAP_60 
REMARK   22  A    between atoms: CAP_60  and  NAT_61 
REMARK   23  A    between atoms: NAT_61  and  CAN_62 
REMARK   24  A    between atoms: CAN_62  and  CAL_63 
ROOT
HETATM    1  CAY   D T 500       9.281  -1.564  -4.449  1.00 41.84     0.079 A 
HETATM    2  CAI   D T 500      10.364  -1.279  -3.571  1.00 42.25     0.020 A 
HETATM    3  CAJ   D T 500      10.993  -0.025  -3.498  1.00 39.39     0.020 A 
HETATM    4  CBE   D T 500       8.785  -0.480  -5.350  1.00 38.78     0.061 A 
HETATM    5  CBA   D T 500       7.648  -0.693  -6.292  1.00 38.89     0.199 A 
HETATM    6  OAA   D T 500       7.092  -1.813  -6.353  1.00 42.15    -0.286 OA
HETATM    7  CBC   D T 500       7.183   0.440  -7.155  1.00 38.64     0.069 A 
HETATM    8  CAW   D T 500       6.058   0.303  -8.131  1.00 41.35     0.134 A 
HETATM    9  OAE   D T 500       5.389  -0.899  -8.254  1.00 47.27    -0.190 OA
HETATM   10  CAG   D T 500       5.688   1.415  -8.908  1.00 39.87     0.030 A 
HETATM   11  CAH   D T 500       6.342   2.656  -8.812  1.00 38.23     0.030 A 
HETATM   12  CAX   D T 500       7.408   2.850  -7.939  1.00 35.83     0.134 A 
HETATM   13  OAF   D T 500       8.020   4.051  -7.845  1.00 35.23    -0.190 OA
HETATM   14  CBD   D T 500       7.863   1.753  -7.070  1.00 35.97     0.069 A 
HETATM   15  CBB   D T 500       8.996   1.954  -6.134  1.00 36.65     0.199 A 
HETATM   16  OAB   D T 500       9.562   3.057  -6.074  1.00 36.71    -0.286 OA
HETATM   17  CBF   D T 500       9.457   0.846  -5.267  1.00 37.01     0.061 A 
HETATM   18  CAZ   D T 500      10.585   1.032  -4.312  1.00 39.54     0.079 A 
ENDROOT
BRANCH   1  19
HETATM   19  NAU   D T 500       8.692  -2.795  -4.485  1.00 41.74    -0.269 NA
BRANCH  19  20
HETATM   20  CAQ   D T 500       7.716  -3.151  -3.458  1.00 47.43     0.151 C 
BRANCH  20  21
HETATM   21  CAO   D T 500       8.334  -3.568  -2.120  1.00 48.34     0.146 C 
BRANCH  21  22
HETATM   22  NAS   D T 500       7.451  -4.405  -1.341  1.00 49.29    -0.291 NA
BRANCH  22  23
HETATM   23  CAM   D T 500       7.997  -5.288  -0.339  1.00 49.13     0.155 C 
BRANCH  23  24
HETATM   24  CAK   D T 500       7.063  -6.468  -0.134  1.00 54.80     0.208 C 
HETATM   25  OAC   D T 500       6.608  -6.497   1.226  1.00 60.78    -0.218 OA
ENDBRANCH  23  24
ENDBRANCH  22  23
ENDBRANCH  21  22
ENDBRANCH  20  21
ENDBRANCH  19  20
ENDBRANCH   1  19
BRANCH  18  26
HETATM   26  NAV   D T 500      11.185   2.239  -4.219  1.00 45.82    -0.269 NA
BRANCH  26  27
HETATM   27  CAR   D T 500      10.410   3.301  -3.586  1.00 50.37     0.151 C 
BRANCH  27  28
HETATM   28  CAP   D T 500      11.230   4.491  -3.136  1.00 56.30     0.146 C 
BRANCH  28  29
HETATM   29  NAT   D T 500      11.705   4.276  -1.776  1.00 57.16    -0.291 NA
BRANCH  29  30
HETATM   30  CAN   D T 500      12.553   5.295  -1.178  1.00 55.30     0.155 C 
BRANCH  30  31
HETATM   31  CAL   D T 500      11.745   6.517  -0.769  1.00 53.22     0.208 C 
HETATM   32  OAD   D T 500      10.866   6.062   0.262  1.00 54.28    -0.218 OA
ENDBRANCH  30  31
ENDBRANCH  29  30
ENDBRANCH  28  29
ENDBRANCH  27  28
ENDBRANCH  26  27
ENDBRANCH  18  26
TORSDOF 24
