REMARK  7 active torsions:
REMARK  status: ('A' for Active; 'I' for Inactive)
REMARK    1  A    between atoms: N3_2  and  C8_7 
REMARK    2  A    between atoms: C5_4  and  C9_34 
REMARK    3  A    between atoms: C7_6  and  N5_28 
REMARK       I    between atoms: C21_13  and  N6_18 
REMARK    4  A    between atoms: C21_13  and  C18_23 
REMARK    5  A    between atoms: C22_14  and  N6_18 
REMARK    6  A    between atoms: C16_24  and  O3_25 
REMARK    7  A    between atoms: N5_28  and  C1_29 
ROOT
HETATM    1  N1    D T 401      -6.541  -5.342  10.260  1.00 24.43    -0.056 NA
HETATM    2  N3    D T 401      -3.482  -2.566  10.868  1.00 24.87    -0.328 N 
HETATM    3  C4    D T 401      -6.694  -4.140   9.682  1.00 24.33     0.138 A 
HETATM    4  C5    D T 401      -3.560  -1.198  10.286  1.00 24.68     0.162 A 
HETATM    5  C6    D T 401      -4.764  -0.928   9.450  1.00 25.06     0.258 A 
HETATM    6  C1    D T 401      -5.451  -5.659  11.009  1.00 24.96     0.752 A 
HETATM    7  N2    D T 401      -4.459  -4.752  11.200  1.00 25.42    -0.041 NA
HETATM    8  C2    D T 401      -4.519  -3.511  10.657  1.00 24.50     0.176 A 
HETATM    9  O1    D T 401      -4.871   0.214   8.935  1.00 25.29    -0.270 OA
HETATM   10  N4    D T 401      -5.804  -1.879   9.267  1.00 24.77    -0.292 N 
HETATM   11  C11   D T 401      -6.980  -1.526   8.456  1.00 25.67     0.134 C 
HETATM   12  C3    D T 401      -5.709  -3.165   9.843  1.00 24.44     0.117 A 
ENDROOT
BRANCH   6  13
HETATM   13  N5    D T 401      -5.407  -6.905  11.545  1.00 24.95    -0.057 NA
BRANCH  13  14
HETATM   14  C7    D T 401      -4.429  -7.482  12.300  1.00 25.44     0.122 A 
HETATM   15  C20   D T 401      -3.124  -6.985  12.413  1.00 23.96     0.022 A 
HETATM   16  C19   D T 401      -2.181  -7.651  13.205  1.00 24.92     0.006 A 
HETATM   17  C18   D T 401      -2.511  -8.822  13.899  1.00 25.62     0.060 A 
HETATM   18  C17   D T 401      -3.796  -9.353  13.809  1.00 25.49     0.030 A 
HETATM   19  C16   D T 401      -4.774  -8.732  13.035  1.00 24.16     0.113 A 
BRANCH  17  20
HETATM   20  C21   D T 401      -1.496  -9.543  14.744  1.00 26.92     0.275 C 
HETATM   21  O2    D T 401      -1.249 -10.707  14.468  1.00 30.54    -0.266 OA
HETATM   22  N6    D T 401      -0.897  -8.918  15.760  1.00 31.16    -0.236 NA
BRANCH  22  23
HETATM   23  C22   D T 401      -0.088  -9.632  16.735  1.00 34.88     0.111 C 
HETATM   24  C29   D T 401       1.346  -9.107  16.754  1.00 36.76     0.048 C 
HETATM   25  C28   D T 401       2.202  -9.928  17.720  1.00 38.21     0.099 C 
HETATM   26  N7    D T 401       1.523  -9.922  19.017  1.00 37.76    -0.367 N 
HETATM   27  C24   D T 401       0.125 -10.336  19.144  1.00 37.52     0.099 C 
HETATM   28  C30   D T 401       2.254  -9.510  20.209  1.00 36.85     0.121 C 
HETATM   29  C23   D T 401      -0.675  -9.505  18.140  1.00 35.87     0.048 C 
ENDBRANCH  22  23
ENDBRANCH  17  20
BRANCH  19  30
HETATM   30  O3    D T 401      -6.042  -9.252  12.951  1.00 24.11    -0.327 OA
HETATM   31  C31   D T 401      -6.325 -10.596  13.347  1.00 17.70     0.181 C 
ENDBRANCH  19  30
ENDBRANCH  13  14
ENDBRANCH   6  13
BRANCH   2  32
HETATM   32  C8    D T 401      -2.326  -3.039  11.676  1.00 24.12     0.083 C 
HETATM   33  C15   D T 401      -2.414  -2.820  13.182  1.00 23.24     0.022 C 
HETATM   34  C14   D T 401      -0.966  -2.728  13.665  1.00 24.93     0.002 C 
HETATM   35  C13   D T 401      -0.121  -2.244  12.460  1.00 23.09     0.002 C 
HETATM   36  C12   D T 401      -0.980  -2.475  11.205  1.00 23.56     0.022 C 
ENDBRANCH   2  32
BRANCH   4  37
HETATM   37  C9    D T 401      -3.621  -0.141  11.405  1.00 25.78     0.032 C 
HETATM   38  C10   D T 401      -4.907  -0.197  12.214  1.00 24.04     0.003 C 
ENDBRANCH   4  37
TORSDOF 7
