REMARK  7 active torsions:
REMARK  status: ('A' for Active; 'I' for Inactive)
REMARK    1  A    between atoms: N3_2  and  C8_7 
REMARK    2  A    between atoms: C5_4  and  C9_34 
REMARK    3  A    between atoms: C7_6  and  N5_28 
REMARK       I    between atoms: C21_13  and  N6_18 
REMARK    4  A    between atoms: C21_13  and  C18_23 
REMARK    5  A    between atoms: C22_14  and  N6_18 
REMARK    6  A    between atoms: C16_24  and  O3_25 
REMARK    7  A    between atoms: N5_28  and  C1_29 
ROOT
HETATM    1  N1    D T 401       1.593   2.202  10.000  1.00 24.43    -0.056 NA
HETATM    2  N3    D T 401       2.092   5.812   7.962  1.00 24.87    -0.328 N 
HETATM    3  C4    D T 401       0.675   2.499   9.066  1.00 24.33     0.138 A 
HETATM    4  C5    D T 401       1.122   6.245   6.919  1.00 24.68     0.162 A 
HETATM    5  C6    D T 401       0.018   5.285   6.637  1.00 25.06     0.258 A 
HETATM    6  C1    D T 401       2.641   3.022  10.281  1.00 24.96     0.752 A 
HETATM    7  N2    D T 401       2.799   4.193   9.612  1.00 25.42    -0.041 NA
HETATM    8  C2    D T 401       1.926   4.582   8.651  1.00 24.50     0.176 A 
HETATM    9  O1    D T 401      -0.825   5.609   5.761  1.00 25.29    -0.270 OA
HETATM   10  N4    D T 401      -0.147   4.068   7.352  1.00 24.77    -0.292 N 
HETATM   11  C11   D T 401      -1.285   3.188   7.041  1.00 25.67     0.134 C 
HETATM   12  C3    D T 401       0.782   3.690   8.346  1.00 24.44     0.117 A 
ENDROOT
BRANCH   6  13
HETATM   13  N5    D T 401       3.505   2.617  11.247  1.00 24.95    -0.057 NA
BRANCH  13  14
HETATM   14  C7    D T 401       4.638   3.226  11.697  1.00 25.44     0.122 A 
HETATM   15  C20   D T 401       5.299   4.260  11.021  1.00 23.96     0.022 A 
HETATM   16  C19   D T 401       6.466   4.820  11.554  1.00 24.92     0.006 A 
HETATM   17  C18   D T 401       7.002   4.368  12.766  1.00 25.62     0.060 A 
HETATM   18  C17   D T 401       6.379   3.337  13.468  1.00 25.49     0.030 A 
HETATM   19  C16   D T 401       5.216   2.743  12.983  1.00 24.16     0.113 A 
BRANCH  17  20
HETATM   20  C21   D T 401       8.260   4.963  13.336  1.00 26.92     0.275 C 
HETATM   21  O2    D T 401       9.204   4.214  13.538  1.00 30.54    -0.266 OA
HETATM   22  N6    D T 401       8.326   6.268  13.610  1.00 31.16    -0.236 NA
BRANCH  22  23
HETATM   23  C22   D T 401       9.428   6.843  14.366  1.00 34.88     0.111 C 
HETATM   24  C29   D T 401      10.165   7.901  13.548  1.00 36.76     0.048 C 
HETATM   25  C28   D T 401      11.373   8.430  14.325  1.00 38.21     0.099 C 
HETATM   26  N7    D T 401      10.886   8.882  15.631  1.00 37.76    -0.367 N 
HETATM   27  C24   D T 401      10.107   7.998  16.498  1.00 37.52     0.099 C 
HETATM   28  C30   D T 401      11.196  10.232  16.084  1.00 36.85     0.121 C 
HETATM   29  C23   D T 401       8.934   7.480  15.663  1.00 35.87     0.048 C 
ENDBRANCH  22  23
ENDBRANCH  17  20
BRANCH  19  30
HETATM   30  O3    D T 401       4.598   1.731  13.678  1.00 24.11    -0.327 OA
HETATM   31  C31   D T 401       5.277   1.016  14.713  1.00 17.70     0.181 C 
ENDBRANCH  19  30
ENDBRANCH  13  14
ENDBRANCH   6  13
BRANCH   2  32
HETATM   32  C8    D T 401       3.294   6.607   8.333  1.00 24.12     0.083 C 
HETATM   33  C15   D T 401       3.119   7.616   9.462  1.00 23.24     0.022 C 
HETATM   34  C14   D T 401       4.162   8.703   9.200  1.00 24.93     0.002 C 
HETATM   35  C13   D T 401       4.453   8.689   7.678  1.00 23.09     0.002 C 
HETATM   36  C12   D T 401       3.928   7.345   7.147  1.00 23.56     0.022 C 
ENDBRANCH   2  32
BRANCH   4  37
HETATM   37  C9    D T 401       0.409   7.540   7.354  1.00 25.78     0.032 C 
HETATM   38  C10   D T 401      -0.505   7.347   8.554  1.00 24.04     0.003 C 
ENDBRANCH   4  37
TORSDOF 7
