REMARK  7 active torsions:
REMARK  status: ('A' for Active; 'I' for Inactive)
REMARK    1  A    between atoms: N3_2  and  C8_7 
REMARK    2  A    between atoms: C5_4  and  C9_34 
REMARK    3  A    between atoms: C7_6  and  N5_28 
REMARK       I    between atoms: C21_13  and  N6_18 
REMARK    4  A    between atoms: C21_13  and  C18_23 
REMARK    5  A    between atoms: C22_14  and  N6_18 
REMARK    6  A    between atoms: C16_24  and  O3_25 
REMARK    7  A    between atoms: N5_28  and  C1_29 
ROOT
HETATM    1  N1    D T 401       7.750   4.898  -7.561  1.00 24.43    -0.056 NA
HETATM    2  N3    D T 401       8.848   1.094  -6.235  1.00 24.87    -0.328 N 
HETATM    3  C4    D T 401       6.871   3.907  -7.778  1.00 24.33     0.138 A 
HETATM    4  C5    D T 401       7.955  -0.078  -6.441  1.00 24.68     0.162 A 
HETATM    5  C6    D T 401       6.651   0.221  -7.097  1.00 25.06     0.258 A 
HETATM    6  C1    D T 401       8.942   4.694  -6.940  1.00 24.96     0.752 A 
HETATM    7  N2    D T 401       9.292   3.455  -6.509  1.00 25.42    -0.041 NA
HETATM    8  C2    D T 401       8.473   2.388  -6.681  1.00 24.50     0.176 A 
HETATM    9  O1    D T 401       5.862  -0.739  -7.289  1.00 25.29    -0.270 OA
HETATM   10  N4    D T 401       6.299   1.520  -7.557  1.00 24.77    -0.292 N 
HETATM   11  C11   D T 401       5.007   1.730  -8.228  1.00 25.67     0.134 C 
HETATM   12  C3    D T 401       7.174   2.610  -7.359  1.00 24.44     0.117 A 
ENDROOT
BRANCH   6  13
HETATM   13  N5    D T 401       9.750   5.773  -6.777  1.00 24.95    -0.057 NA
BRANCH  13  14
HETATM   14  C7    D T 401      10.968   5.850  -6.170  1.00 25.44     0.122 A 
HETATM   15  C20   D T 401      11.489   4.867  -5.318  1.00 23.96     0.022 A 
HETATM   16  C19   D T 401      12.747   5.037  -4.729  1.00 24.92     0.006 A 
HETATM   17  C18   D T 401      13.515   6.183  -4.972  1.00 25.62     0.060 A 
HETATM   18  C17   D T 401      13.032   7.188  -5.808  1.00 25.49     0.030 A 
HETATM   19  C16   D T 401      11.786   7.071  -6.420  1.00 24.16     0.113 A 
BRANCH  17  20
HETATM   20  C21   D T 401      14.864   6.371  -4.333  1.00 26.92     0.275 C 
HETATM   21  O2    D T 401      15.031   7.357  -3.633  1.00 30.54    -0.266 OA
HETATM   22  N6    D T 401      15.838   5.480  -4.538  1.00 31.16    -0.236 NA
BRANCH  22  23
HETATM   23  C22   D T 401      17.212   5.733  -4.133  1.00 34.88     0.111 C 
HETATM   24  C29   D T 401      17.697   4.680  -3.139  1.00 36.76     0.048 C 
HETATM   25  C28   D T 401      19.111   5.013  -2.657  1.00 38.21     0.099 C 
HETATM   26  N7    D T 401      19.949   5.174  -3.847  1.00 37.76    -0.367 N 
HETATM   27  C24   D T 401      19.577   6.100  -4.918  1.00 37.52     0.099 C 
HETATM   28  C30   D T 401      21.185   4.412  -3.963  1.00 36.85     0.121 C 
HETATM   29  C23   D T 401      18.151   5.739  -5.338  1.00 35.87     0.048 C 
ENDBRANCH  22  23
ENDBRANCH  17  20
BRANCH  19  30
HETATM   30  O3    D T 401      11.312   8.059  -7.249  1.00 24.11    -0.327 OA
HETATM   31  C31   D T 401      11.886   9.368  -7.253  1.00 17.70     0.181 C 
ENDBRANCH  19  30
ENDBRANCH  13  14
ENDBRANCH   6  13
BRANCH   2  32
HETATM   32  C8    D T 401      10.161   1.002  -5.541  1.00 24.12     0.083 C 
HETATM   33  C15   D T 401      11.375   0.717  -6.418  1.00 23.24     0.022 C 
HETATM   34  C14   D T 401      12.382   0.018  -5.504  1.00 24.93     0.002 C 
HETATM   35  C13   D T 401      11.566  -0.666  -4.378  1.00 23.09     0.002 C 
HETATM   36  C12   D T 401      10.174  -0.013  -4.391  1.00 23.56     0.022 C 
ENDBRANCH   2  32
BRANCH   4  37
HETATM   37  C9    D T 401       8.627  -1.109  -7.368  1.00 25.78     0.032 C 
HETATM   38  C10   D T 401       8.801  -0.610  -8.794  1.00 24.04     0.003 C 
ENDBRANCH   4  37
TORSDOF 7
