REMARK  7 active torsions:
REMARK  status: ('A' for Active; 'I' for Inactive)
REMARK    1  A    between atoms: N3_2  and  C8_7 
REMARK    2  A    between atoms: C5_4  and  C9_34 
REMARK    3  A    between atoms: C7_6  and  N5_28 
REMARK       I    between atoms: C21_13  and  N6_18 
REMARK    4  A    between atoms: C21_13  and  C18_23 
REMARK    5  A    between atoms: C22_14  and  N6_18 
REMARK    6  A    between atoms: C16_24  and  O3_25 
REMARK    7  A    between atoms: N5_28  and  C1_29 
ROOT
HETATM    1  N1    D T 401       3.217   3.841 -10.346  1.00 24.43    -0.056 NA
HETATM    2  N3    D T 401       6.348   3.104  -7.683  1.00 24.87    -0.328 N 
HETATM    3  C4    D T 401       3.279   2.610  -9.814  1.00 24.33     0.138 A 
HETATM    4  C5    D T 401       6.519   1.768  -7.051  1.00 24.68     0.162 A 
HETATM    5  C6    D T 401       5.479   0.759  -7.399  1.00 25.06     0.258 A 
HETATM    6  C1    D T 401       4.118   4.814 -10.043  1.00 24.96     0.752 A 
HETATM    7  N2    D T 401       5.132   4.568  -9.175  1.00 25.42    -0.041 NA
HETATM    8  C2    D T 401       5.281   3.357  -8.584  1.00 24.50     0.176 A 
HETATM    9  O1    D T 401       5.582  -0.384  -6.885  1.00 25.29    -0.270 OA
HETATM   10  N4    D T 401       4.428   1.022  -8.320  1.00 24.77    -0.292 N 
HETATM   11  C11   D T 401       3.459  -0.038  -8.641  1.00 25.67     0.134 C 
HETATM   12  C3    D T 401       4.300   2.296  -8.915  1.00 24.44     0.117 A 
ENDROOT
BRANCH   6  13
HETATM   13  N5    D T 401       3.954   6.020 -10.644  1.00 24.95    -0.057 NA
BRANCH  13  14
HETATM   14  C7    D T 401       4.687   7.160 -10.497  1.00 25.44     0.122 A 
HETATM   15  C20   D T 401       5.586   7.389  -9.446  1.00 23.96     0.022 A 
HETATM   16  C19   D T 401       6.289   8.597  -9.369  1.00 24.92     0.006 A 
HETATM   17  C18   D T 401       6.117   9.601 -10.330  1.00 25.62     0.060 A 
HETATM   18  C17   D T 401       5.229   9.417 -11.387  1.00 25.49     0.030 A 
HETATM   19  C16   D T 401       4.502   8.234 -11.513  1.00 24.16     0.113 A 
BRANCH  17  20
HETATM   20  C21   D T 401       6.866  10.903 -10.244  1.00 26.92     0.275 C 
HETATM   21  O2    D T 401       6.213  11.933 -10.183  1.00 30.54    -0.266 OA
HETATM   22  N6    D T 401       8.201  10.915 -10.238  1.00 31.16    -0.236 NA
BRANCH  22  23
HETATM   23  C22   D T 401       8.963  12.145 -10.386  1.00 34.88     0.111 C 
HETATM   24  C29   D T 401       9.859  12.388  -9.174  1.00 36.76     0.048 C 
HETATM   25  C28   D T 401      10.583  13.730  -9.307  1.00 38.21     0.099 C 
HETATM   26  N7    D T 401      11.274  13.726 -10.598  1.00 37.76    -0.367 N 
HETATM   27  C24   D T 401      10.557  13.443 -11.841  1.00 37.52     0.099 C 
HETATM   28  C30   D T 401      12.699  14.024 -10.651  1.00 36.85     0.121 C 
HETATM   29  C23   D T 401       9.833  12.110 -11.641  1.00 35.87     0.048 C 
ENDBRANCH  22  23
ENDBRANCH  17  20
BRANCH  19  30
HETATM   30  O3    D T 401       3.631   8.049 -12.559  1.00 24.11    -0.327 OA
HETATM   31  C31   D T 401       3.171   9.148 -13.349  1.00 17.70     0.181 C 
ENDBRANCH  19  30
ENDBRANCH  13  14
ENDBRANCH   6  13
BRANCH   2  32
HETATM   32  C8    D T 401       7.249   4.255  -7.406  1.00 24.12     0.083 C 
HETATM   33  C15   D T 401       8.461   4.404  -8.318  1.00 23.24     0.022 C 
HETATM   34  C14   D T 401       9.512   5.136  -7.482  1.00 24.93     0.002 C 
HETATM   35  C13   D T 401       9.197   4.828  -5.997  1.00 23.09     0.002 C 
HETATM   36  C12   D T 401       7.753   4.301  -5.958  1.00 23.56     0.022 C 
ENDBRANCH   2  32
BRANCH   4  37
HETATM   37  C9    D T 401       7.846   1.127  -7.500  1.00 25.78     0.032 C 
HETATM   38  C10   D T 401       7.868   0.765  -8.977  1.00 24.04     0.003 C 
ENDBRANCH   4  37
TORSDOF 7
