REMARK  7 active torsions:
REMARK  status: ('A' for Active; 'I' for Inactive)
REMARK    1  A    between atoms: N3_2  and  C8_7 
REMARK    2  A    between atoms: C5_4  and  C9_34 
REMARK    3  A    between atoms: C7_6  and  N5_28 
REMARK       I    between atoms: C21_13  and  N6_18 
REMARK    4  A    between atoms: C21_13  and  C18_23 
REMARK    5  A    between atoms: C22_14  and  N6_18 
REMARK    6  A    between atoms: C16_24  and  O3_25 
REMARK    7  A    between atoms: N5_28  and  C1_29 
ROOT
HETATM    1  N1    D T 401      -1.709  -8.869  -5.435  1.00 24.43    -0.056 NA
HETATM    2  N3    D T 401      -4.506  -5.922  -6.397  1.00 24.87    -0.328 N 
HETATM    3  C4    D T 401      -1.415  -7.613  -5.061  1.00 24.33     0.138 A 
HETATM    4  C5    D T 401      -4.270  -4.495  -6.045  1.00 24.68     0.162 A 
HETATM    5  C6    D T 401      -3.011  -4.223  -5.296  1.00 25.06     0.258 A 
HETATM    6  C1    D T 401      -2.857  -9.185  -6.093  1.00 24.96     0.752 A 
HETATM    7  N2    D T 401      -3.763  -8.222  -6.400  1.00 25.42    -0.041 NA
HETATM    8  C2    D T 401      -3.558  -6.924  -6.065  1.00 24.50     0.176 A 
HETATM    9  O1    D T 401      -2.770  -3.032  -4.974  1.00 25.29    -0.270 OA
HETATM   10  N4    D T 401      -2.061  -5.236  -4.990  1.00 24.77    -0.292 N 
HETATM   11  C11   D T 401      -0.822  -4.883  -4.279  1.00 25.67     0.134 C 
HETATM   12  C3    D T 401      -2.306  -6.579  -5.350  1.00 24.44     0.117 A 
ENDROOT
BRANCH   6  13
HETATM   13  N5    D T 401      -3.045 -10.489  -6.421  1.00 24.95    -0.057 NA
BRANCH  13  14
HETATM   14  C7    D T 401      -4.106 -11.073  -7.046  1.00 25.44     0.122 A 
HETATM   15  C20   D T 401      -5.360 -10.468  -7.203  1.00 23.96     0.022 A 
HETATM   16  C19   D T 401      -6.397 -11.149  -7.851  1.00 24.92     0.006 A 
HETATM   17  C18   D T 401      -6.213 -12.442  -8.357  1.00 25.62     0.060 A 
HETATM   18  C17   D T 401      -4.984 -13.083  -8.218  1.00 25.49     0.030 A 
HETATM   19  C16   D T 401      -3.917 -12.451  -7.581  1.00 24.16     0.113 A 
BRANCH  17  20
HETATM   20  C21   D T 401      -7.329 -13.178  -9.047  1.00 26.92     0.275 C 
HETATM   21  O2    D T 401      -7.677 -14.252  -8.581  1.00 30.54    -0.266 OA
HETATM   22  N6    D T 401      -7.908 -12.662 -10.134  1.00 31.16    -0.236 NA
BRANCH  22  23
HETATM   23  C22   D T 401      -8.824 -13.433 -10.960  1.00 34.88     0.111 C 
HETATM   24  C29   D T 401     -10.199 -12.772 -11.023  1.00 36.76     0.048 C 
HETATM   25  C28   D T 401     -11.173 -13.642 -11.821  1.00 38.21     0.099 C 
HETATM   26  N7    D T 401     -10.553 -13.909 -13.121  1.00 37.76    -0.367 N 
HETATM   27  C24   D T 401      -9.209 -14.481 -13.218  1.00 37.52     0.099 C 
HETATM   28  C30   D T 401     -11.291 -13.617 -14.342  1.00 36.85     0.121 C 
HETATM   29  C23   D T 401      -8.288 -13.589 -12.382  1.00 35.87     0.048 C 
ENDBRANCH  22  23
ENDBRANCH  17  20
BRANCH  19  30
HETATM   30  O3    D T 401      -2.703 -13.081  -7.449  1.00 24.11    -0.327 OA
HETATM   31  C31   D T 401      -2.570 -14.492  -7.632  1.00 17.70     0.181 C 
ENDBRANCH  19  30
ENDBRANCH  13  14
ENDBRANCH   6  13
BRANCH   2  32
HETATM   32  C8    D T 401      -5.737  -6.394  -7.087  1.00 24.12     0.083 C 
HETATM   33  C15   D T 401      -5.693  -6.424  -8.610  1.00 23.24     0.022 C 
HETATM   34  C14   D T 401      -7.144  -6.260  -9.062  1.00 24.93     0.002 C 
HETATM   35  C13   D T 401      -7.885  -5.509  -7.927  1.00 23.09     0.002 C 
HETATM   36  C12   D T 401      -6.999  -5.627  -6.676  1.00 23.56     0.022 C 
ENDBRANCH   2  32
BRANCH   4  37
HETATM   37  C9    D T 401      -4.155  -3.639  -7.320  1.00 25.78     0.032 C 
HETATM   38  C10   D T 401      -2.917  -3.953  -8.144  1.00 24.04     0.003 C 
ENDBRANCH   4  37
TORSDOF 7
