REMARK  7 active torsions:
REMARK  status: ('A' for Active; 'I' for Inactive)
REMARK    1  A    between atoms: N3_2  and  C8_7 
REMARK    2  A    between atoms: C5_4  and  C9_34 
REMARK    3  A    between atoms: C7_6  and  N5_28 
REMARK       I    between atoms: C21_13  and  N6_18 
REMARK    4  A    between atoms: C21_13  and  C18_23 
REMARK    5  A    between atoms: C22_14  and  N6_18 
REMARK    6  A    between atoms: C16_24  and  O3_25 
REMARK    7  A    between atoms: N5_28  and  C1_29 
ROOT
HETATM    1  N1    D T 401       5.143   9.267   4.250  1.00 24.43    -0.056 NA
HETATM    2  N3    D T 401       5.195  12.552   1.673  1.00 24.87    -0.328 N 
HETATM    3  C4    D T 401       4.032   9.484   3.526  1.00 24.33     0.138 A 
HETATM    4  C5    D T 401       4.010  12.892   0.839  1.00 24.68     0.162 A 
HETATM    5  C6    D T 401       2.855  11.958   0.959  1.00 25.06     0.258 A 
HETATM    6  C1    D T 401       6.240  10.066   4.160  1.00 24.96     0.752 A 
HETATM    7  N2    D T 401       6.251  11.130   3.318  1.00 25.42    -0.041 NA
HETATM    8  C2    D T 401       5.179  11.433   2.545  1.00 24.50     0.176 A 
HETATM    9  O1    D T 401       1.833  12.204   0.270  1.00 25.29    -0.270 OA
HETATM   10  N4    D T 401       2.848  10.853   1.854  1.00 24.77    -0.292 N 
HETATM   11  C11   D T 401       1.655   9.996   1.944  1.00 25.67     0.134 C 
HETATM   12  C3    D T 401       3.982  10.564   2.644  1.00 24.44     0.117 A 
ENDROOT
BRANCH   6  13
HETATM   13  N5    D T 401       7.303   9.749   4.942  1.00 24.95    -0.057 NA
BRANCH  13  14
HETATM   14  C7    D T 401       8.521  10.357   5.025  1.00 25.44     0.122 A 
HETATM   15  C20   D T 401       9.016  11.261   4.076  1.00 23.96     0.022 A 
HETATM   16  C19   D T 401      10.285  11.829   4.237  1.00 24.92     0.006 A 
HETATM   17  C18   D T 401      11.089  11.514   5.340  1.00 25.62     0.060 A 
HETATM   18  C17   D T 401      10.637  10.614   6.303  1.00 25.49     0.030 A 
HETATM   19  C16   D T 401       9.382  10.019   6.193  1.00 24.16     0.113 A 
BRANCH  17  20
HETATM   20  C21   D T 401      12.456  12.117   5.510  1.00 26.92     0.275 C 
HETATM   21  O2    D T 401      13.409  11.357   5.586  1.00 30.54    -0.266 OA
HETATM   22  N6    D T 401      12.606  13.442   5.578  1.00 31.16    -0.236 NA
BRANCH  22  23
HETATM   23  C22   D T 401      13.865  14.057   5.967  1.00 34.88     0.111 C 
HETATM   24  C29   D T 401      14.401  14.964   4.861  1.00 36.76     0.048 C 
HETATM   25  C28   D T 401      15.768  15.530   5.252  1.00 38.21     0.099 C 
HETATM   26  N7    D T 401      15.616  16.171   6.559  1.00 37.76    -0.367 N 
HETATM   27  C24   D T 401      15.054  15.447   7.699  1.00 37.52     0.099 C 
HETATM   28  C30   D T 401      16.045  17.553   6.737  1.00 36.85     0.121 C 
HETATM   29  C23   D T 401      13.707  14.881   7.243  1.00 35.87     0.048 C 
ENDBRANCH  22  23
ENDBRANCH  17  20
BRANCH  19  30
HETATM   30  O3    D T 401       8.934   9.137   7.146  1.00 24.11    -0.327 OA
HETATM   31  C31   D T 401       9.829   8.530   8.081  1.00 17.70     0.181 C 
ENDBRANCH  19  30
ENDBRANCH  13  14
ENDBRANCH   6  13
BRANCH   2  32
HETATM   32  C8    D T 401       6.462  13.331   1.638  1.00 24.12     0.083 C 
HETATM   33  C15   D T 401       6.578  14.486   2.626  1.00 23.24     0.022 C 
HETATM   34  C14   D T 401       7.545  15.478   1.979  1.00 24.93     0.002 C 
HETATM   35  C13   D T 401       7.463  15.252   0.448  1.00 23.09     0.002 C 
HETATM   36  C12   D T 401       6.805  13.877   0.246  1.00 23.56     0.022 C 
ENDBRANCH   2  32
BRANCH   4  37
HETATM   37  C9    D T 401       3.442  14.265   1.246  1.00 25.78     0.032 C 
HETATM   38  C10   D T 401       2.839  14.274   2.641  1.00 24.04     0.003 C 
ENDBRANCH   4  37
TORSDOF 7
