REMARK  8 active torsions:
REMARK  status: ('A' for Active; 'I' for Inactive)
REMARK    1  A    between atoms: S1_2  and  N7_4 
REMARK    2  A    between atoms: S1_2  and  C21_9 
REMARK    3  A    between atoms: N7_4  and  C23_5 
REMARK    4  A    between atoms: C17_14  and  N1_15 
REMARK    5  A    between atoms: N1_15  and  C1_16 
REMARK    6  A    between atoms: C4_18  and  N4_23 
REMARK    7  A    between atoms: N4_23  and  C6_24 
REMARK    8  A    between atoms: C9_27  and  N5_30 
ROOT
HETATM    1  C1    D T1201      -4.109   1.059  12.202  1.00 25.50     0.178 A 
HETATM    2  N3    D T1201      -3.564   0.196  13.075  1.00 24.51    -0.041 NA
HETATM    3  C4    D T1201      -4.348  -0.598  13.809  1.00 26.00     0.751 A 
HETATM    4  N2    D T1201      -5.682  -0.562  13.702  1.00 27.09    -0.058 NA
HETATM    5  C3    D T1201      -6.248   0.284  12.836  1.00 26.64     0.117 A 
HETATM    6  C2    D T1201      -5.487   1.136  12.052  1.00 22.40     0.034 A 
HETATM    7  C5    D T1201      -6.162   2.075  11.082  1.00 20.91     0.036 C 
ENDROOT
BRANCH   1   8
HETATM    8  N1    D T1201      -3.262   1.834  11.487  1.00 26.87    -0.227 NA
BRANCH   8   9
HETATM    9  C17   D T1201      -1.960   2.185  11.675  1.00 26.69     0.084 A 
HETATM   10  C18   D T1201      -1.256   1.877  12.843  1.00 27.53     0.019 A 
HETATM   11  C19   D T1201       0.089   2.237  12.983  1.00 30.18     0.002 A 
HETATM   12  C20   D T1201       0.738   2.897  11.938  1.00 27.75     0.013 A 
HETATM   13  C21   D T1201       0.022   3.195  10.776  1.00 29.98     0.106 A 
HETATM   14  C22   D T1201      -1.310   2.841  10.641  1.00 25.75     0.032 A 
BRANCH  13  15
HETATM   15  S1    D T1201       0.776   3.992   9.378  1.00 33.88     0.281 S 
HETATM   16  O2    D T1201       0.176   3.423   8.214  1.00 32.26    -0.199 OA
HETATM   17  O1    D T1201       2.194   3.813   9.511  1.00 41.11    -0.199 OA
BRANCH  15  18
HETATM   18  N7    D T1201       0.188   5.646   9.461  1.00 34.20    -0.189 NA
BRANCH  18  19
HETATM   19  C23   D T1201       0.795   6.739  10.192  1.00 42.34     0.097 C 
HETATM   20  C26   D T1201       1.983   7.252   9.390  1.00 28.35     0.025 C 
HETATM   21  C25   D T1201       1.236   6.292  11.579  1.00 32.55     0.025 C 
HETATM   22  C24   D T1201      -0.244   7.848  10.311  1.00 33.84     0.025 C 
ENDBRANCH  18  19
ENDBRANCH  15  18
ENDBRANCH  13  15
ENDBRANCH   8   9
ENDBRANCH   1   8
BRANCH   3  23
HETATM   23  N4    D T1201      -3.789  -1.473  14.695  1.00 27.54    -0.059 NA
BRANCH  23  24
HETATM   24  C6    D T1201      -2.504  -1.765  15.045  1.00 28.50     0.100 A 
HETATM   25  C11   D T1201      -1.451  -1.099  14.425  1.00 28.34     0.021 A 
HETATM   26  C10   D T1201      -0.142  -1.374  14.775  1.00 24.65     0.018 A 
HETATM   27  C9    D T1201       0.138  -2.332  15.746  1.00 32.26     0.056 A 
HETATM   28  C8    D T1201      -0.909  -3.006  16.385  1.00 24.70     0.018 A 
HETATM   29  C7    D T1201      -2.225  -2.720  16.026  1.00 27.68     0.021 A 
BRANCH  27  30
HETATM   30  N5    D T1201       1.488  -2.550  16.075  1.00 35.69    -0.344 N 
HETATM   31  C15   D T1201       2.479  -1.463  15.892  1.00 37.46     0.137 C 
HETATM   32  C14   D T1201       3.294  -1.118  17.126  1.00 37.22     0.274 C 
HETATM   33  N6    D T1201       3.944  -2.341  17.607  1.00 55.55     0.143 N 
HETATM   34  C16   D T1201       4.798  -1.998  18.756  1.00 64.64     0.286 C 
HETATM   35  C13   D T1201       2.904  -3.303  18.016  1.00 53.32     0.274 C 
HETATM   36  C12   D T1201       2.027  -3.710  16.829  1.00 47.69     0.137 C 
ENDBRANCH  27  30
ENDBRANCH  23  24
ENDBRANCH   3  23
TORSDOF 8
