REMARK  8 active torsions:
REMARK  status: ('A' for Active; 'I' for Inactive)
REMARK    1  A    between atoms: S1_2  and  N7_4 
REMARK    2  A    between atoms: S1_2  and  C21_9 
REMARK    3  A    between atoms: N7_4  and  C23_5 
REMARK    4  A    between atoms: C17_14  and  N1_15 
REMARK    5  A    between atoms: N1_15  and  C1_16 
REMARK    6  A    between atoms: C4_18  and  N4_23 
REMARK    7  A    between atoms: N4_23  and  C6_24 
REMARK    8  A    between atoms: C9_27  and  N5_30 
ROOT
HETATM    1  C1    D T1201      -8.983   1.976  -5.556  1.00 25.50     0.178 A 
HETATM    2  N3    D T1201      -9.732   1.080  -6.220  1.00 24.51    -0.041 NA
HETATM    3  C4    D T1201      -9.191   0.348  -7.196  1.00 26.00     0.751 A 
HETATM    4  N2    D T1201      -7.903   0.477  -7.541  1.00 27.09    -0.058 NA
HETATM    5  C3    D T1201      -7.136   1.357  -6.891  1.00 26.64     0.117 A 
HETATM    6  C2    D T1201      -7.643   2.150  -5.874  1.00 22.40     0.034 A 
HETATM    7  C5    D T1201      -6.744   3.130  -5.159  1.00 20.91     0.036 C 
ENDROOT
BRANCH   1   8
HETATM    8  N1    D T1201      -9.590   2.687  -4.577  1.00 26.87    -0.227 NA
BRANCH   8   9
HETATM    9  C17   D T1201     -10.900   2.945  -4.310  1.00 26.69     0.084 A 
HETATM   10  C18   D T1201     -11.933   2.593  -5.182  1.00 27.53     0.019 A 
HETATM   11  C19   D T1201     -13.268   2.857  -4.855  1.00 30.18     0.002 A 
HETATM   12  C20   D T1201     -13.570   3.465  -3.635  1.00 27.75     0.013 A 
HETATM   13  C21   D T1201     -12.526   3.809  -2.771  1.00 29.98     0.106 A 
HETATM   14  C22   D T1201     -11.206   3.549  -3.100  1.00 25.75     0.032 A 
BRANCH  13  15
HETATM   15  S1    D T1201     -12.818   4.544  -1.180  1.00 33.88     0.281 S 
HETATM   16  O2    D T1201     -11.826   4.014  -0.301  1.00 32.26    -0.199 OA
HETATM   17  O1    D T1201     -14.183   4.266  -0.837  1.00 41.11    -0.199 OA
BRANCH  15  18
HETATM   18  N7    D T1201     -12.401   6.236  -1.409  1.00 34.20    -0.189 NA
BRANCH  18  19
HETATM   19  C23   D T1201     -13.288   7.286  -1.865  1.00 42.34     0.097 C 
HETATM   20  C26   D T1201     -14.169   7.710  -0.698  1.00 28.35     0.025 C 
HETATM   21  C25   D T1201     -14.139   6.815  -3.036  1.00 32.55     0.025 C 
HETATM   22  C24   D T1201     -12.424   8.466  -2.293  1.00 33.84     0.025 C 
ENDBRANCH  18  19
ENDBRANCH  15  18
ENDBRANCH  13  15
ENDBRANCH   8   9
ENDBRANCH   1   8
BRANCH   3  23
HETATM   23  N4    D T1201      -9.956  -0.561  -7.868  1.00 27.54    -0.059 NA
BRANCH  23  24
HETATM   24  C6    D T1201     -11.261  -0.943  -7.775  1.00 28.50     0.100 A 
HETATM   25  C11   D T1201     -12.086  -0.355  -6.821  1.00 28.34     0.021 A 
HETATM   26  C10   D T1201     -13.416  -0.721  -6.720  1.00 24.65     0.018 A 
HETATM   27  C9    D T1201     -13.943  -1.692  -7.568  1.00 32.26     0.056 A 
HETATM   28  C8    D T1201     -13.129  -2.288  -8.538  1.00 24.70     0.018 A 
HETATM   29  C7    D T1201     -11.791  -1.911  -8.633  1.00 27.68     0.021 A 
BRANCH  27  30
HETATM   30  N5    D T1201     -15.307  -2.004  -7.433  1.00 35.69    -0.344 N 
HETATM   31  C15   D T1201     -16.248  -0.990  -6.898  1.00 37.46     0.137 C 
HETATM   32  C14   D T1201     -17.451  -0.699  -7.778  1.00 37.22     0.274 C 
HETATM   33  N6    D T1201     -18.143  -1.962  -8.048  1.00 55.55     0.143 N 
HETATM   34  C16   D T1201     -19.354  -1.676  -8.835  1.00 64.64     0.286 C 
HETATM   35  C13   D T1201     -17.241  -2.847  -8.808  1.00 53.32     0.274 C 
HETATM   36  C12   D T1201     -15.991  -3.195  -7.995  1.00 47.69     0.137 C 
ENDBRANCH  27  30
ENDBRANCH  23  24
ENDBRANCH   3  23
TORSDOF 8
