REMARK  8 active torsions:
REMARK  status: ('A' for Active; 'I' for Inactive)
REMARK    1  A    between atoms: S1_2  and  N7_4 
REMARK    2  A    between atoms: S1_2  and  C21_9 
REMARK    3  A    between atoms: N7_4  and  C23_5 
REMARK    4  A    between atoms: C17_14  and  N1_15 
REMARK    5  A    between atoms: N1_15  and  C1_16 
REMARK    6  A    between atoms: C4_18  and  N4_23 
REMARK    7  A    between atoms: N4_23  and  C6_24 
REMARK    8  A    between atoms: C9_27  and  N5_30 
ROOT
HETATM    1  C1    D T1201      -4.608  -2.786   9.564  1.00 25.50     0.178 A 
HETATM    2  N3    D T1201      -4.341  -4.027  10.003  1.00 24.51    -0.041 NA
HETATM    3  C4    D T1201      -5.339  -4.866  10.288  1.00 26.00     0.751 A 
HETATM    4  N2    D T1201      -6.622  -4.506  10.147  1.00 27.09    -0.058 NA
HETATM    5  C3    D T1201      -6.913  -3.278   9.706  1.00 26.64     0.117 A 
HETATM    6  C2    D T1201      -5.920  -2.362   9.401  1.00 22.40     0.034 A 
HETATM    7  C5    D T1201      -6.288  -0.986   8.901  1.00 20.91     0.036 C 
ENDROOT
BRANCH   1   8
HETATM    8  N1    D T1201      -3.552  -1.984   9.292  1.00 26.87    -0.227 NA
BRANCH   8   9
HETATM    9  C17   D T1201      -2.245  -2.029   9.671  1.00 26.69     0.084 A 
HETATM   10  C18   D T1201      -1.765  -2.934  10.622  1.00 27.53     0.019 A 
HETATM   11  C19   D T1201      -0.408  -2.960  10.964  1.00 30.18     0.002 A 
HETATM   12  C20   D T1201       0.477  -2.082  10.335  1.00 27.75     0.013 A 
HETATM   13  C21   D T1201      -0.017  -1.186   9.384  1.00 29.98     0.106 A 
HETATM   14  C22   D T1201      -1.361  -1.160   9.051  1.00 25.75     0.032 A 
BRANCH  13  15
HETATM   15  S1    D T1201       1.041  -0.063   8.502  1.00 33.88     0.281 S 
HETATM   16  O2    D T1201       0.509   0.041   7.181  1.00 32.26    -0.199 OA
HETATM   17  O1    D T1201       2.376  -0.579   8.608  1.00 41.11    -0.199 OA
BRANCH  15  18
HETATM   18  N7    D T1201       0.743   1.492   9.263  1.00 34.20    -0.189 NA
BRANCH  18  19
HETATM   19  C23   D T1201       1.429   2.029  10.421  1.00 42.34     0.097 C 
HETATM   20  C26   D T1201       2.783   2.561   9.972  1.00 28.35     0.025 C 
HETATM   21  C25   D T1201       1.600   0.966  11.497  1.00 32.55     0.025 C 
HETATM   22  C24   D T1201       0.592   3.183  10.959  1.00 33.84     0.025 C 
ENDBRANCH  18  19
ENDBRANCH  15  18
ENDBRANCH  13  15
ENDBRANCH   8   9
ENDBRANCH   1   8
BRANCH   3  23
HETATM   23  N4    D T1201      -5.062  -6.126  10.734  1.00 27.54    -0.059 NA
BRANCH  23  24
HETATM   24  C6    D T1201      -3.905  -6.803  10.980  1.00 28.50     0.100 A 
HETATM   25  C11   D T1201      -2.680  -6.181  10.756  1.00 28.34     0.021 A 
HETATM   26  C10   D T1201      -1.496  -6.848  11.011  1.00 24.65     0.018 A 
HETATM   27  C9    D T1201      -1.516  -8.158  11.486  1.00 32.26     0.056 A 
HETATM   28  C8    D T1201      -2.740  -8.795  11.724  1.00 24.70     0.018 A 
HETATM   29  C7    D T1201      -3.927  -8.113  11.466  1.00 27.68     0.021 A 
BRANCH  27  30
HETATM   30  N5    D T1201      -0.281  -8.774  11.749  1.00 35.69    -0.344 N 
HETATM   31  C15   D T1201       0.900  -7.947  12.096  1.00 37.46     0.137 C 
HETATM   32  C14   D T1201       1.593  -8.325  13.394  1.00 37.22     0.274 C 
HETATM   33  N6    D T1201       1.952  -9.744  13.329  1.00 55.55     0.143 N 
HETATM   34  C16   D T1201       2.694 -10.098  14.550  1.00 64.64     0.286 C 
HETATM   35  C13   D T1201       0.716 -10.544  13.237  1.00 53.32     0.274 C 
HETATM   36  C12   D T1201      -0.055 -10.227  11.952  1.00 47.69     0.137 C 
ENDBRANCH  27  30
ENDBRANCH  23  24
ENDBRANCH   3  23
TORSDOF 8
