REMARK  3 active torsions:
REMARK  status: ('A' for Active; 'I' for Inactive)
REMARK    1  A    between atoms: N8_3  and  C19_4 
REMARK    2  A    between atoms: C16_9  and  C24_10 
REMARK    3  A    between atoms: C33_22  and  C37_26 
ROOT
HETATM    1  O5    D T2601     -83.259  33.513  42.194  1.00 38.51    -0.267 OA
HETATM    2  C27   D T2601     -82.482  34.489  42.185  1.00 37.76     0.265 A 
HETATM    3  N8    D T2601     -82.448  35.356  43.299  1.00 37.58    -0.275 N 
HETATM    4  C32   D T2601     -81.667  34.685  41.081  1.00 37.69     0.061 A 
HETATM    5  C31   D T2601     -80.801  35.762  41.055  1.00 37.72     0.008 A 
HETATM    6  C26   D T2601     -80.754  36.641  42.130  1.00 37.94     0.036 A 
HETATM    7  C34   D T2601     -79.863  37.701  42.030  1.00 38.22     0.100 A 
HETATM    8  N9    D T2601     -79.755  38.587  43.025  1.00 38.06    -0.244 NA
HETATM    9  C23   D T2601     -81.564  36.485  43.273  1.00 37.68     0.070 A 
HETATM   10  C25   D T2601     -81.426  37.446  44.306  1.00 37.45     0.034 A 
HETATM   11  C30   D T2601     -82.153  37.431  45.500  1.00 37.25     0.003 A 
HETATM   12  C33   D T2601     -81.984  38.400  46.496  1.00 37.10     0.002 A 
HETATM   13  C36   D T2601     -81.065  39.409  46.296  1.00 37.07     0.002 A 
HETATM   14  C35   D T2601     -80.336  39.447  45.122  1.00 37.46     0.019 A 
HETATM   15  C29   D T2601     -80.508  38.481  44.140  1.00 37.59     0.083 A 
ENDROOT
BRANCH   3  16
HETATM   16  C19   D T2601     -83.368  35.067  44.344  1.00 37.36     0.067 A 
HETATM   17  C21   D T2601     -83.188  34.107  45.341  1.00 37.26     0.018 A 
HETATM   18  C18   D T2601     -84.166  33.896  46.312  1.00 36.83     0.001 A 
HETATM   19  C15   D T2601     -85.341  34.636  46.272  1.00 36.71     0.004 A 
HETATM   20  C16   D T2601     -85.542  35.579  45.272  1.00 36.90     0.073 A 
HETATM   21  C20   D T2601     -84.562  35.780  44.314  1.00 37.06     0.021 A 
BRANCH  20  22
HETATM   22  C24   D T2601     -86.803  36.393  45.211  1.00 37.44     0.419 C 
HETATM   23  F3    D T2601     -86.767  37.307  46.163  1.00 37.54    -0.166 F 
HETATM   24  F2    D T2601     -87.868  35.626  45.383  1.00 37.84    -0.166 F 
HETATM   25  F1    D T2601     -86.885  36.993  44.034  1.00 37.70    -0.166 F 
ENDBRANCH  20  22
ENDBRANCH   3  16
BRANCH  12  26
HETATM   26  C37   D T2601     -82.707  38.379  47.690  1.00 37.09     0.019 A 
HETATM   27  C39   D T2601     -82.497  39.365  48.654  1.00 36.88     0.101 A 
HETATM   28  N10   D T2601     -83.189  39.353  49.800  1.00 36.63    -0.224 NA
HETATM   29  C41   D T2601     -84.109  38.398  50.057  1.00 36.47     0.184 A 
HETATM   30  C40   D T2601     -84.362  37.394  49.141  1.00 36.38     0.041 A 
HETATM   31  N43   D T2601     -84.788  38.418  51.223  1.00 36.94    -0.127 N 
HETATM   32  C38   D T2601     -83.654  37.388  47.948  1.00 36.91     0.005 A 
ENDBRANCH  12  26
TORSDOF 3
