REMARK  2 active torsions:
REMARK  status: ('A' for Active; 'I' for Inactive)
REMARK    1  A    between atoms: C4_4  and  C7_7 
REMARK    2  A    between atoms: C5_5  and  C15_15 
ROOT
HETATM    1  N1    D T 201      -2.811   2.270   4.023  1.00  5.16    -0.037 NA
HETATM    2  C2    D T 201      -2.799   3.029   5.150  1.00  5.00     0.769 C 
HETATM    3  C3    D T 201      -3.418   2.826   2.933  1.00  4.75     0.203 C 
HETATM    4  C4    D T 201      -3.996   4.124   2.902  1.00  4.81     0.052 C 
HETATM    5  C5    D T 201      -3.970   4.813   4.085  1.00  4.85     0.081 C 
HETATM    6  N6    D T 201      -3.455   4.235   5.207  1.00  5.33    -0.062 NA
HETATM    7  N13   D T 201      -3.430   2.048   1.806  1.00  5.45    -0.126 N 
HETATM    8  N14   D T 201      -2.230   2.608   6.221  1.00  6.07     0.062 N 
ENDROOT
BRANCH   4   9
HETATM    9  C7    D T 201      -4.527   4.673   1.656  1.00  5.93     0.004 A 
HETATM   10  C8    D T 201      -5.587   4.069   0.945  1.00  6.93     0.001 A 
HETATM   11  C9    D T 201      -6.026   4.600  -0.299  1.00  8.90     0.011 A 
HETATM   12  C10   D T 201      -5.322   5.744  -0.793  1.00  8.73     0.058 A 
HETATM   13  C11   D T 201      -4.212   6.354  -0.156  1.00  7.65     0.011 A 
HETATM   14 CL1    D T 201      -5.883   6.404  -2.307  1.00 14.54    -0.082 Cl
HETATM   15  C12   D T 201      -3.889   5.803   1.094  1.00  6.02     0.001 A 
ENDBRANCH   4   9
BRANCH   5  16
HETATM   16  C15   D T 201      -4.589   6.193   4.330  1.00  5.65     0.047 C 
HETATM   17  C16   D T 201      -3.469   7.220   4.624  1.00  8.46     0.007 C 
ENDBRANCH   5  16
TORSDOF 2
