REMARK  2 active torsions:
REMARK  status: ('A' for Active; 'I' for Inactive)
REMARK    1  A    between atoms: C4_4  and  C7_7 
REMARK    2  A    between atoms: C5_5  and  C15_15 
ROOT
HETATM    1  N1    D T 201      -2.912   2.282   3.892  1.00  5.16    -0.037 NA
HETATM    2  C2    D T 201      -2.933   3.090   4.983  1.00  5.00     0.769 C 
HETATM    3  C3    D T 201      -3.585   2.738   2.795  1.00  4.75     0.203 C 
HETATM    4  C4    D T 201      -4.264   3.985   2.722  1.00  4.81     0.052 C 
HETATM    5  C5    D T 201      -4.264   4.728   3.873  1.00  4.85     0.081 C 
HETATM    6  N6    D T 201      -3.679   4.244   5.004  1.00  5.33    -0.062 NA
HETATM    7  N13   D T 201      -3.563   1.910   1.704  1.00  5.45    -0.126 N 
HETATM    8  N14   D T 201      -2.307   2.765   6.056  1.00  6.07     0.062 N 
ENDROOT
BRANCH   4   9
HETATM    9  C7    D T 201      -4.865   4.433   1.468  1.00  5.93     0.004 A 
HETATM   10  C8    D T 201      -5.891   3.716   0.813  1.00  6.93     0.001 A 
HETATM   11  C9    D T 201      -6.400   4.155  -0.441  1.00  8.90     0.011 A 
HETATM   12  C10   D T 201      -5.800   5.325  -1.004  1.00  8.73     0.058 A 
HETATM   13  C11   D T 201      -4.727   6.047  -0.425  1.00  7.65     0.011 A 
HETATM   14 CL1    D T 201      -6.446   5.870  -2.529  1.00 14.54    -0.082 Cl
HETATM   15  C12   D T 201      -4.332   5.582   0.840  1.00  6.02     0.001 A 
ENDBRANCH   4   9
BRANCH   5  16
HETATM   16  C15   D T 201      -4.984   6.066   4.073  1.00  5.65     0.047 C 
HETATM   17  C16   D T 201      -3.941   7.189   4.291  1.00  8.46     0.007 C 
ENDBRANCH   5  16
TORSDOF 2
