REMARK  2 active torsions:
REMARK  status: ('A' for Active; 'I' for Inactive)
REMARK    1  A    between atoms: C4_4  and  C7_7 
REMARK    2  A    between atoms: C5_5  and  C15_15 
ROOT
HETATM    1  N1    D T 201      -1.279   2.061   4.614  1.00  5.16    -0.037 NA
HETATM    2  C2    D T 201      -1.141   2.499   5.893  1.00  5.00     0.769 C 
HETATM    3  C3    D T 201      -1.481   3.026   3.669  1.00  4.75     0.203 C 
HETATM    4  C4    D T 201      -1.527   4.422   3.934  1.00  4.81     0.052 C 
HETATM    5  C5    D T 201      -1.411   4.780   5.251  1.00  4.85     0.081 C 
HETATM    6  N6    D T 201      -1.305   3.825   6.217  1.00  5.33    -0.062 NA
HETATM    7  N13   D T 201      -1.625   2.572   2.385  1.00  5.45    -0.126 N 
HETATM    8  N14   D T 201      -0.920   1.674   6.852  1.00  6.07     0.062 N 
ENDROOT
BRANCH   4   9
HETATM    9  C7    D T 201      -1.641   5.384   2.840  1.00  5.93     0.004 A 
HETATM   10  C8    D T 201      -2.741   5.408   1.954  1.00  6.93     0.001 A 
HETATM   11  C9    D T 201      -2.777   6.318   0.862  1.00  8.90     0.011 A 
HETATM   12  C10   D T 201      -1.640   7.170   0.698  1.00  8.73     0.058 A 
HETATM   13  C11   D T 201      -0.482   7.147   1.515  1.00  7.65     0.011 A 
HETATM   14 CL1    D T 201      -1.703   8.300  -0.629  1.00 14.54    -0.082 Cl
HETATM   15  C12   D T 201      -0.560   6.265   2.604  1.00  6.02     0.001 A 
ENDBRANCH   4   9
BRANCH   5  16
HETATM   16  C15   D T 201      -1.503   6.207   5.801  1.00  5.65     0.047 C 
HETATM   17  C16   D T 201      -0.134   6.626   6.390  1.00  8.46     0.007 C 
ENDBRANCH   5  16
TORSDOF 2
