REMARK  2 active torsions:
REMARK  status: ('A' for Active; 'I' for Inactive)
REMARK    1  A    between atoms: C4_4  and  C7_7 
REMARK    2  A    between atoms: C5_5  and  C15_15 
ROOT
HETATM    1  N1    D T 201       2.424  -1.797   0.335  1.00  5.16    -0.037 NA
HETATM    2  C2    D T 201       3.038  -2.215  -0.802  1.00  5.00     0.769 C 
HETATM    3  C3    D T 201       1.843  -2.772   1.095  1.00  4.75     0.203 C 
HETATM    4  C4    D T 201       1.867  -4.160   0.788  1.00  4.81     0.052 C 
HETATM    5  C5    D T 201       2.479  -4.496  -0.390  1.00  4.85     0.081 C 
HETATM    6  N6    D T 201       2.979  -3.527  -1.207  1.00  5.33    -0.062 NA
HETATM    7  N13   D T 201       1.221  -2.337   2.235  1.00  5.45    -0.126 N 
HETATM    8  N14   D T 201       3.638  -1.380  -1.572  1.00  6.07     0.062 N 
ENDROOT
BRANCH   4   9
HETATM    9  C7    D T 201       1.309  -5.138   1.720  1.00  5.93     0.004 A 
HETATM   10  C8    D T 201      -0.050  -5.138   2.105  1.00  6.93     0.001 A 
HETATM   11  C9    D T 201      -0.534  -6.067   3.067  1.00  8.90     0.011 A 
HETATM   12  C10   D T 201       0.426  -6.964   3.634  1.00  8.73     0.058 A 
HETATM   13  C11   D T 201       1.811  -6.968   3.334  1.00  7.65     0.011 A 
HETATM   14 CL1    D T 201      -0.181  -8.116   4.794  1.00 14.54    -0.082 Cl
HETATM   15  C12   D T 201       2.188  -6.062   2.330  1.00  6.02     0.001 A 
ENDBRANCH   4   9
BRANCH   5  16
HETATM   16  C15   D T 201       2.571  -5.908  -0.978  1.00  5.65     0.047 C 
HETATM   17  C16   D T 201       4.050  -6.366  -1.000  1.00  8.46     0.007 C 
ENDBRANCH   5  16
TORSDOF 2
