REMARK  8 active torsions:
REMARK  status: ('A' for Active; 'I' for Inactive)
REMARK    1  A    between atoms: C20_8  and  C12_12 
REMARK    2  A    between atoms: C22_10  and  C19_16 
REMARK       I    between atoms: C22_10  and  N25_19 
REMARK    3  A    between atoms: C12_12  and  C18_15 
REMARK    4  A    between atoms: N25_19  and  C37_23 
REMARK    5  A    between atoms: C37_23  and  C38_24 
REMARK    6  A    between atoms: C38_24  and  N4_25 
REMARK    7  A    between atoms: N4_25  and  C39_26 
REMARK    8  A    between atoms: N4_25  and  C40_27 
ROOT
HETATM    1  C4    D T 701      -5.081  -9.958  11.568  1.00 38.18     0.052 C 
HETATM    2  C13   D T 701      -2.400  -7.209  11.144  1.00 38.14     0.002 A 
HETATM    3  C3    D T 701      -1.063  -6.505  11.141  1.00 38.74     0.033 C 
HETATM    4  C14   D T 701      -4.262  -8.717  11.315  1.00 38.01     0.064 A 
HETATM    5  C18   D T 701      -3.720  -6.644  10.782  1.00 36.77     0.077 A 
HETATM    6  C19   D T 701      -2.790  -8.593  11.501  1.00 40.17     0.069 A 
HETATM    7  N23   D T 701      -4.739  -7.528  10.879  1.00 37.14    -0.250 NA
ENDROOT
BRANCH   5   8
HETATM    8  C12   D T 701      -3.919  -5.243  10.328  1.00 34.67     0.024 C 
BRANCH   8   9
HETATM    9  C20   D T 701      -5.225  -4.602  10.032  1.00 33.52     0.061 A 
HETATM   10  C17   D T 701      -5.307  -3.198   9.595  1.00 32.71     0.025 A 
HETATM   11  C7    D T 701      -4.351  -2.214   9.371  1.00 32.88     0.031 A 
HETATM   12  C16   D T 701      -6.766  -2.946   9.387  1.00 32.41     0.085 A 
HETATM   13  C15   D T 701      -4.788  -0.958   8.944  1.00 33.17     0.140 A 
HETATM   14  C5    D T 701      -6.145  -0.699   8.741  1.00 32.94     0.031 A 
HETATM   15  F29   D T 701      -3.900   0.018   8.709  1.00 35.13    -0.204 F 
HETATM   16  C6    D T 701      -7.128  -1.669   8.962  1.00 32.25     0.021 A 
HETATM   17  N24   D T 701      -7.487  -4.065   9.673  1.00 32.41    -0.208 NA
HETATM   18  C21   D T 701      -6.631  -5.029  10.051  1.00 32.73     0.279 A 
HETATM   19  O27   D T 701      -7.007  -6.199  10.381  1.00 31.29    -0.265 OA
ENDBRANCH   8   9
ENDBRANCH   5   8
BRANCH   6  20
HETATM   20  C22   D T 701      -1.899  -9.691  11.977  1.00 43.71     0.276 C 
HETATM   21  N25   D T 701      -0.678  -9.824  11.460  1.00 47.28    -0.232 NA
HETATM   22  O28   D T 701      -2.312 -10.436  12.849  1.00 44.02    -0.266 OA
BRANCH  21  23
HETATM   23  C37   D T 701       0.263 -10.819  11.936  1.00 50.13     0.164 C 
BRANCH  23  24
HETATM   24  C38   D T 701      -0.146 -12.238  11.536  1.00 52.43     0.276 C 
BRANCH  24  25
HETATM   25  N4    D T 701       0.875 -13.256  11.887  1.00 55.35     0.139 N 
BRANCH  25  26
HETATM   26  C39   D T 701       2.090 -13.148  11.027  1.00 56.24     0.250 C 
HETATM   27  C42   D T 701       3.302 -12.486  11.663  1.00 56.21     0.037 C 
ENDBRANCH  25  26
BRANCH  25  28
HETATM   28  C40   D T 701       1.109 -13.301  13.353  1.00 56.18     0.250 C 
HETATM   29  C41   D T 701       1.664 -14.648  13.778  1.00 55.71     0.037 C 
ENDBRANCH  25  28
ENDBRANCH  24  25
ENDBRANCH  23  24
ENDBRANCH  21  23
ENDBRANCH   6  20
TORSDOF 8
