REMARK  8 active torsions:
REMARK  status: ('A' for Active; 'I' for Inactive)
REMARK    1  A    between atoms: C20_8  and  C12_12 
REMARK    2  A    between atoms: C22_10  and  C19_16 
REMARK       I    between atoms: C22_10  and  N25_19 
REMARK    3  A    between atoms: C12_12  and  C18_15 
REMARK    4  A    between atoms: N25_19  and  C37_23 
REMARK    5  A    between atoms: C37_23  and  C38_24 
REMARK    6  A    between atoms: C38_24  and  N4_25 
REMARK    7  A    between atoms: N4_25  and  C39_26 
REMARK    8  A    between atoms: N4_25  and  C40_27 
ROOT
HETATM    1  C4    D T 701       9.226   8.336   6.024  1.00 38.18     0.052 C 
HETATM    2  C13   D T 701       8.772  10.742   3.036  1.00 38.14     0.002 A 
HETATM    3  C3    D T 701       9.084  11.729   1.935  1.00 38.74     0.033 C 
HETATM    4  C14   D T 701       8.763   9.200   4.879  1.00 38.01     0.064 A 
HETATM    5  C18   D T 701       7.447  10.191   3.408  1.00 36.77     0.077 A 
HETATM    6  C19   D T 701       9.632  10.068   4.036  1.00 40.17     0.069 A 
HETATM    7  N23   D T 701       7.488   9.319   4.440  1.00 37.14    -0.250 NA
ENDROOT
BRANCH   5   8
HETATM    8  C12   D T 701       6.185  10.538   2.705  1.00 34.67     0.024 C 
BRANCH   8   9
HETATM    9  C20   D T 701       4.825  10.082   3.085  1.00 33.52     0.061 A 
HETATM   10  C17   D T 701       3.637  10.495   2.319  1.00 32.71     0.025 A 
HETATM   11  C7    D T 701       3.459  11.304   1.202  1.00 32.88     0.031 A 
HETATM   12  C16   D T 701       2.488   9.821   2.998  1.00 32.41     0.085 A 
HETATM   13  C15   D T 701       2.160  11.482   0.720  1.00 33.17     0.140 A 
HETATM   14  C5    D T 701       1.072  10.863   1.337  1.00 32.94     0.031 A 
HETATM   15  F29   D T 701       1.944  12.248  -0.359  1.00 35.13    -0.204 F 
HETATM   16  C6    D T 701       1.222  10.047   2.464  1.00 32.25     0.021 A 
HETATM   17  N24   D T 701       2.927   9.091   4.060  1.00 32.41    -0.208 NA
HETATM   18  C21   D T 701       4.261   9.225   4.138  1.00 32.73     0.279 A 
HETATM   19  O27   D T 701       4.965   8.655   5.032  1.00 31.29    -0.265 OA
ENDBRANCH   8   9
ENDBRANCH   5   8
BRANCH   6  20
HETATM   20  C22   D T 701      11.106  10.216   4.209  1.00 43.71     0.276 C 
HETATM   21  N25   D T 701      11.889  10.333   3.138  1.00 47.28    -0.232 NA
HETATM   22  O28   D T 701      11.558  10.242   5.340  1.00 44.02    -0.266 OA
BRANCH  21  23
HETATM   23  C37   D T 701      13.318  10.559   3.240  1.00 50.13     0.164 C 
BRANCH  23  24
HETATM   24  C38   D T 701      14.063   9.322   3.747  1.00 52.43     0.276 C 
BRANCH  24  25
HETATM   25  N4    D T 701      15.538   9.484   3.722  1.00 55.35     0.139 N 
BRANCH  25  26
HETATM   26  C39   D T 701      16.077   9.486   2.330  1.00 56.24     0.250 C 
HETATM   27  C42   D T 701      16.452  10.845   1.762  1.00 56.21     0.037 C 
ENDBRANCH  25  26
BRANCH  25  28
HETATM   28  C40   D T 701      15.971  10.603   4.596  1.00 56.18     0.250 C 
HETATM   29  C41   D T 701      17.413  10.427   5.037  1.00 55.71     0.037 C 
ENDBRANCH  25  28
ENDBRANCH  24  25
ENDBRANCH  23  24
ENDBRANCH  21  23
ENDBRANCH   6  20
TORSDOF 8
