REMARK  8 active torsions:
REMARK  status: ('A' for Active; 'I' for Inactive)
REMARK    1  A    between atoms: C20_8  and  C12_12 
REMARK    2  A    between atoms: C22_10  and  C19_16 
REMARK       I    between atoms: C22_10  and  N25_19 
REMARK    3  A    between atoms: C12_12  and  C18_15 
REMARK    4  A    between atoms: N25_19  and  C37_23 
REMARK    5  A    between atoms: C37_23  and  C38_24 
REMARK    6  A    between atoms: C38_24  and  N4_25 
REMARK    7  A    between atoms: N4_25  and  C39_26 
REMARK    8  A    between atoms: N4_25  and  C40_27 
ROOT
HETATM    1  C4    D T 701       2.982   8.479 -11.164  1.00 38.18     0.052 C 
HETATM    2  C13   D T 701       5.158   7.218  -8.232  1.00 38.14     0.002 A 
HETATM    3  C3    D T 701       6.109   7.210  -7.057  1.00 38.74     0.033 C 
HETATM    4  C14   D T 701       3.729   7.720 -10.097  1.00 38.01     0.064 A 
HETATM    5  C18   D T 701       4.497   6.054  -8.867  1.00 36.77     0.077 A 
HETATM    6  C19   D T 701       4.633   8.317  -9.075  1.00 40.17     0.069 A 
HETATM    7  N23   D T 701       3.693   6.381  -9.904  1.00 37.14    -0.250 NA
ENDROOT
BRANCH   5   8
HETATM    8  C12   D T 701       4.674   4.653  -8.404  1.00 34.67     0.024 C 
BRANCH   8   9
HETATM    9  C20   D T 701       4.102   3.446  -9.050  1.00 33.52     0.061 A 
HETATM   10  C17   D T 701       4.349   2.099  -8.508  1.00 32.71     0.025 A 
HETATM   11  C7    D T 701       5.071   1.629  -7.417  1.00 32.88     0.031 A 
HETATM   12  C16   D T 701       3.600   1.177  -9.416  1.00 32.41     0.085 A 
HETATM   13  C15   D T 701       5.089   0.252  -7.183  1.00 33.17     0.140 A 
HETATM   14  C5    D T 701       4.397  -0.628  -8.017  1.00 32.94     0.031 A 
HETATM   15  F29   D T 701       5.767  -0.242  -6.138  1.00 35.13    -0.204 F 
HETATM   16  C6    D T 701       3.665  -0.184  -9.123  1.00 32.25     0.021 A 
HETATM   17  N24   D T 701       2.979   1.882 -10.401  1.00 32.41    -0.208 NA
HETATM   18  C21   D T 701       3.253   3.184 -10.221  1.00 32.73     0.279 A 
HETATM   19  O27   D T 701       2.808   4.099 -10.985  1.00 31.29    -0.265 OA
ENDBRANCH   8   9
ENDBRANCH   5   8
BRANCH   6  20
HETATM   20  C22   D T 701       4.940   9.773  -8.960  1.00 43.71     0.276 C 
HETATM   21  N25   D T 701       5.077  10.327  -7.756  1.00 47.28    -0.232 NA
HETATM   22  O28   D T 701       5.075  10.419  -9.984  1.00 44.02    -0.266 OA
BRANCH  21  23
HETATM   23  C37   D T 701       5.452  11.716  -7.579  1.00 50.13     0.164 C 
BRANCH  23  24
HETATM   24  C38   D T 701       4.328  12.674  -7.979  1.00 52.43     0.276 C 
BRANCH  24  25
HETATM   25  N4    D T 701       4.638  14.092  -7.670  1.00 55.35     0.139 N 
BRANCH  25  26
HETATM   26  C39   D T 701       4.618  14.361  -6.202  1.00 56.24     0.250 C 
HETATM   27  C42   D T 701       5.974  14.473  -5.525  1.00 56.21     0.037 C 
ENDBRANCH  25  26
BRANCH  25  28
HETATM   28  C40   D T 701       5.843  14.552  -8.406  1.00 56.18     0.250 C 
HETATM   29  C41   D T 701       5.840  16.061  -8.572  1.00 55.71     0.037 C 
ENDBRANCH  25  28
ENDBRANCH  24  25
ENDBRANCH  23  24
ENDBRANCH  21  23
ENDBRANCH   6  20
TORSDOF 8
