REMARK  8 active torsions:
REMARK  status: ('A' for Active; 'I' for Inactive)
REMARK    1  A    between atoms: C20_8  and  C12_12 
REMARK    2  A    between atoms: C22_10  and  C19_16 
REMARK       I    between atoms: C22_10  and  N25_19 
REMARK    3  A    between atoms: C12_12  and  C18_15 
REMARK    4  A    between atoms: N25_19  and  C37_23 
REMARK    5  A    between atoms: C37_23  and  C38_24 
REMARK    6  A    between atoms: C38_24  and  N4_25 
REMARK    7  A    between atoms: N4_25  and  C39_26 
REMARK    8  A    between atoms: N4_25  and  C40_27 
ROOT
HETATM    1  C4    D T 701     -11.776  -3.124  -9.678  1.00 38.18     0.052 C 
HETATM    2  C13   D T 701     -13.113  -0.569  -7.108  1.00 38.14     0.002 A 
HETATM    3  C3    D T 701     -14.064   0.210  -6.229  1.00 38.74     0.033 C 
HETATM    4  C14   D T 701     -12.014  -2.045  -8.652  1.00 38.01     0.064 A 
HETATM    5  C18   D T 701     -11.649  -0.388  -7.239  1.00 36.77     0.077 A 
HETATM    6  C19   D T 701     -13.333  -1.678  -8.066  1.00 40.17     0.069 A 
HETATM    7  N23   D T 701     -11.067  -1.246  -8.108  1.00 37.14    -0.250 NA
ENDROOT
BRANCH   5   8
HETATM    8  C12   D T 701     -10.873   0.623  -6.475  1.00 34.67     0.024 C 
BRANCH   8   9
HETATM    9  C20   D T 701      -9.423   0.902  -6.626  1.00 33.52     0.061 A 
HETATM   10  C17   D T 701      -8.754   1.936  -5.819  1.00 32.71     0.025 A 
HETATM   11  C7    D T 701      -9.203   2.819  -4.842  1.00 32.88     0.031 A 
HETATM   12  C16   D T 701      -7.323   1.894  -6.249  1.00 32.41     0.085 A 
HETATM   13  C15   D T 701      -8.273   3.685  -4.262  1.00 33.17     0.140 A 
HETATM   14  C5    D T 701      -6.931   3.663  -4.647  1.00 32.94     0.031 A 
HETATM   15  F29   D T 701      -8.660   4.547  -3.312  1.00 35.13    -0.204 F 
HETATM   16  C6    D T 701      -6.454   2.788  -5.629  1.00 32.25     0.021 A 
HETATM   17  N24   D T 701      -7.146   0.948  -7.212  1.00 32.41    -0.208 NA
HETATM   18  C21   D T 701      -8.332   0.367  -7.453  1.00 32.73     0.279 A 
HETATM   19  O27   D T 701      -8.488  -0.563  -8.307  1.00 31.29    -0.265 OA
ENDBRANCH   8   9
ENDBRANCH   5   8
BRANCH   6  20
HETATM   20  C22   D T 701     -14.629  -2.329  -8.416  1.00 43.71     0.276 C 
HETATM   21  N25   D T 701     -15.543  -2.536  -7.469  1.00 47.28    -0.232 NA
HETATM   22  O28   D T 701     -14.824  -2.643  -9.577  1.00 44.02    -0.266 OA
BRANCH  21  23
HETATM   23  C37   D T 701     -16.850  -3.090  -7.759  1.00 50.13     0.164 C 
BRANCH  23  24
HETATM   24  C38   D T 701     -16.780  -4.574  -8.126  1.00 52.43     0.276 C 
BRANCH  24  25
HETATM   25  N4    D T 701     -18.118  -5.196  -8.285  1.00 55.35     0.139 N 
BRANCH  25  26
HETATM   26  C39   D T 701     -18.824  -5.345  -6.979  1.00 56.24     0.250 C 
HETATM   27  C42   D T 701     -19.919  -4.329  -6.691  1.00 56.21     0.037 C 
ENDBRANCH  25  26
BRANCH  25  28
HETATM   28  C40   D T 701     -18.887  -4.545  -9.377  1.00 56.18     0.250 C 
HETATM   29  C41   D T 701     -19.947  -5.480  -9.932  1.00 55.71     0.037 C 
ENDBRANCH  25  28
ENDBRANCH  24  25
ENDBRANCH  23  24
ENDBRANCH  21  23
ENDBRANCH   6  20
TORSDOF 8
