REMARK  4 active torsions:
REMARK  status: ('A' for Active; 'I' for Inactive)
REMARK    1  A    between atoms: C4_6  and  C5_7 
REMARK    2  A    between atoms: C5_7  and  C6_8 
REMARK    3  A    between atoms: C5_7  and  C12_16 
REMARK    4  A    between atoms: C21_27  and  C22_28 
ROOT
HETATM    1  C12   D T 602      -1.476  12.063  -5.768  0.93 11.20    -0.001 C 
HETATM    2  C13   D T 602      -2.541  11.454  -5.558  0.93 13.45    -0.005 C 
HETATM    3  C14   D T 602      -3.441  12.138  -4.767  0.93 13.80     0.011 C 
HETATM    4  C15   D T 602      -1.055  13.346  -5.477  0.93 11.22     0.031 C 
HETATM    5  C16   D T 602      -1.983  14.081  -4.387  0.93 16.07     0.048 C 
HETATM    6  C17   D T 602      -3.161  13.113  -4.084  0.93 15.64     0.040 C 
HETATM    7  N4    D T 602      -4.018  13.916  -3.201  0.93 18.36    -0.297 N 
HETATM    8  C18   D T 602      -3.521  15.259  -2.555  0.93 18.78     0.133 C 
HETATM    9  C19   D T 602      -5.072  13.250  -2.661  0.93 20.18     0.261 C 
HETATM   10  O1    D T 602      -5.741  13.880  -1.805  0.93 23.41    -0.267 OA
HETATM   11  C20   D T 602      -5.314  12.043  -3.294  0.93 18.07     0.061 C 
HETATM   12  C21   D T 602      -4.695  11.494  -4.363  0.93 15.40     0.006 C 
ENDROOT
BRANCH   1  13
HETATM   13  C5    D T 602      -0.589  11.493  -6.884  0.93 11.75     0.334 C 
HETATM   14  N3    D T 602      -0.135  12.283  -7.982  0.93 12.53     0.628 N 
BRANCH  13  15
HETATM   15  C4    D T 602       0.833  11.252  -6.053  0.93 10.99     0.082 C 
HETATM   16  N1    D T 602       1.977  10.556  -6.560  0.93 12.88    -0.312 N 
HETATM   17  C1    D T 602       2.448  10.226  -7.983  0.93 11.29     0.132 C 
HETATM   18  C2    D T 602       2.883  10.481  -5.630  0.93 12.15     0.174 C 
HETATM   19  N2    D T 602       2.409  10.959  -4.567  0.93 12.12    -0.246 NA
HETATM   20  C3    D T 602       1.048  11.346  -4.582  0.93 11.32     0.169 C 
ENDBRANCH  13  15
BRANCH  13  21
HETATM   21  C6    D T 602      -0.890  10.089  -7.512  0.93 12.23     0.016 C 
HETATM   22  C7    D T 602      -0.867   9.009  -6.702  0.93  8.55    -0.022 C 
HETATM   23  C8    D T 602      -1.355   7.725  -7.020  0.93 12.58     0.064 C 
HETATM   24  C9    D T 602      -2.027   8.050  -8.365  0.93 13.77     0.040 C 
HETATM   25 CL1    D T 602      -2.881   6.360  -8.789  0.93 24.65    -0.087 Cl
HETATM   26  C10   D T 602      -2.088   8.988  -9.131  0.93 16.75     0.007 C 
HETATM   27  C11   D T 602      -1.433  10.190  -8.674  0.93 14.77    -0.001 C 
ENDBRANCH  13  21
ENDBRANCH   1  13
BRANCH  12  28
HETATM   28  C22   D T 602      -5.067  10.184  -4.907  0.93 16.80     0.000 C 
HETATM   29  C23   D T 602      -4.242   9.010  -4.598  0.93 14.45     0.007 C 
HETATM   30  C24   D T 602      -4.829   7.908  -5.212  0.93 15.91     0.040 C 
HETATM   31 CL2    D T 602      -3.908   6.404  -4.940  0.93 18.54    -0.087 Cl
HETATM   32  C25   D T 602      -5.970   7.770  -6.171  0.93 19.85     0.064 C 
HETATM   33  C26   D T 602      -6.743   8.995  -6.161  0.93 17.96    -0.021 C 
HETATM   34  C27   D T 602      -6.209  10.059  -5.637  0.93 18.50    -0.004 C 
ENDBRANCH  12  28
TORSDOF 4
