REMARK  4 active torsions:
REMARK  status: ('A' for Active; 'I' for Inactive)
REMARK    1  A    between atoms: C4_6  and  C5_7 
REMARK    2  A    between atoms: C5_7  and  C6_8 
REMARK    3  A    between atoms: C5_7  and  C12_16 
REMARK    4  A    between atoms: C21_27  and  C22_28 
ROOT
HETATM    1  C12   D T 602       8.435  -6.257   9.378  0.93 11.20    -0.001 C 
HETATM    2  C13   D T 602       8.930  -5.455   8.566  0.93 13.45    -0.005 C 
HETATM    3  C14   D T 602       9.537  -4.359   9.145  0.93 13.80     0.011 C 
HETATM    4  C15   D T 602       8.479  -6.345  10.756  0.93 11.22     0.031 C 
HETATM    5  C16   D T 602       8.988  -4.989  11.457  0.93 16.07     0.048 C 
HETATM    6  C17   D T 602       9.384  -4.019  10.309  0.93 15.64     0.040 C 
HETATM    7  N4    D T 602       9.961  -2.880  11.037  0.93 18.36    -0.297 N 
HETATM    8  C18   D T 602       9.802  -2.717  12.591  0.93 18.78     0.133 C 
HETATM    9  C19   D T 602      10.269  -1.803  10.267  0.93 20.18     0.261 C 
HETATM   10  O1    D T 602      10.643  -0.775  10.884  0.93 23.41    -0.267 OA
HETATM   11  C20   D T 602      10.276  -2.104   8.916  0.93 18.07     0.061 C 
HETATM   12  C21   D T 602      10.075  -3.290   8.299  0.93 15.40     0.006 C 
ENDROOT
BRANCH   1  13
HETATM   13  C5    D T 602       8.037  -7.626   8.808  0.93 11.75     0.334 C 
HETATM   14  N3    D T 602       8.514  -8.853   9.357  0.93 12.53     0.628 N 
BRANCH  13  15
HETATM   15  C4    D T 602       6.431  -7.684   9.241  0.93 10.99     0.082 C 
HETATM   16  N1    D T 602       5.493  -8.673   8.802  0.93 12.88    -0.312 N 
HETATM   17  C1    D T 602       5.663 -10.091   8.243  0.93 11.29     0.132 C 
HETATM   18  C2    D T 602       4.312  -8.381   9.262  0.93 12.15     0.174 C 
HETATM   19  N2    D T 602       4.373  -7.273   9.856  0.93 12.12    -0.246 NA
HETATM   20  C3    D T 602       5.605  -6.578   9.802  0.93 11.32     0.169 C 
ENDBRANCH  13  15
BRANCH  13  21
HETATM   21  C6    D T 602       8.010  -7.875   7.262  0.93 12.23     0.016 C 
HETATM   22  C7    D T 602       7.177  -7.124   6.508  0.93  8.55    -0.022 C 
HETATM   23  C8    D T 602       7.198  -7.022   5.102  0.93 12.58     0.064 C 
HETATM   24  C9    D T 602       8.492  -7.808   4.824  0.93 13.77     0.040 C 
HETATM   25 CL1    D T 602       8.688  -7.563   2.909  0.93 24.65    -0.087 Cl
HETATM   26  C10   D T 602       9.276  -8.490   5.448  0.93 16.75     0.007 C 
HETATM   27  C11   D T 602       9.025  -8.560   6.868  0.93 14.77    -0.001 C 
ENDBRANCH  13  21
ENDBRANCH   1  13
BRANCH  12  28
HETATM   28  C22   D T 602      10.101  -3.438   6.840  0.93 16.80     0.000 C 
HETATM   29  C23   D T 602       8.838  -3.533   6.099  0.93 14.45     0.007 C 
HETATM   30  C24   D T 602       9.150  -3.640   4.747  0.93 15.91     0.040 C 
HETATM   31 CL2    D T 602       7.696  -3.792   3.722  0.93 18.54    -0.087 Cl
HETATM   32  C25   D T 602      10.444  -3.811   4.015  0.93 19.85     0.064 C 
HETATM   33  C26   D T 602      11.535  -3.481   4.907  0.93 17.96    -0.021 C 
HETATM   34  C27   D T 602      11.293  -3.419   6.184  0.93 18.50    -0.004 C 
ENDBRANCH  12  28
TORSDOF 4
