REMARK  4 active torsions:
REMARK  status: ('A' for Active; 'I' for Inactive)
REMARK    1  A    between atoms: C4_6  and  C5_7 
REMARK    2  A    between atoms: C5_7  and  C6_8 
REMARK    3  A    between atoms: C5_7  and  C12_16 
REMARK    4  A    between atoms: C21_27  and  C22_28 
ROOT
HETATM    1  C12   D T 602       1.688  12.995  -6.056  0.93 11.20    -0.001 C 
HETATM    2  C13   D T 602       0.571  12.478  -6.244  0.93 13.45    -0.005 C 
HETATM    3  C14   D T 602      -0.490  13.234  -5.788  0.93 13.80     0.011 C 
HETATM    4  C15   D T 602       2.082  14.236  -5.597  0.93 11.22     0.031 C 
HETATM    5  C16   D T 602       0.897  15.044  -4.869  0.93 16.07     0.048 C 
HETATM    6  C17   D T 602      -0.386  14.180  -5.020  0.93 15.64     0.040 C 
HETATM    7  N4    D T 602      -1.428  15.050  -4.459  0.93 18.36    -0.297 N 
HETATM    8  C18   D T 602      -1.081  16.344  -3.639  0.93 18.78     0.133 C 
HETATM    9  C19   D T 602      -2.653  14.474  -4.336  0.93 20.18     0.261 C 
HETATM   10  O1    D T 602      -3.525  15.157  -3.742  0.93 23.41    -0.267 OA
HETATM   11  C20   D T 602      -2.757  13.294  -5.052  0.93 18.07     0.061 C 
HETATM   12  C21   D T 602      -1.852  12.698  -5.861  0.93 15.40     0.006 C 
ENDROOT
BRANCH   1  13
HETATM   13  C5    D T 602       2.857  12.355  -6.817  0.93 11.75     0.334 C 
HETATM   14  N3    D T 602       3.723  13.107  -7.666  0.93 12.53     0.628 N 
BRANCH  13  15
HETATM   15  C4    D T 602       3.882  11.991  -5.557  0.93 10.99     0.082 C 
HETATM   16  N1    D T 602       5.072  11.201  -5.663  0.93 12.88    -0.312 N 
HETATM   17  C1    D T 602       5.977  10.837  -6.846  0.93 11.29     0.132 C 
HETATM   18  C2    D T 602       5.593  11.046  -4.480  0.93 12.15     0.174 C 
HETATM   19  N2    D T 602       4.820  11.560  -3.630  0.93 12.12    -0.246 NA
HETATM   20  C3    D T 602       3.583  12.061  -4.099  0.93 11.32     0.169 C 
ENDBRANCH  13  15
BRANCH  13  21
HETATM   21  C6    D T 602       2.681  10.984  -7.555  0.93 12.23     0.016 C 
HETATM   22  C7    D T 602       2.339   9.903  -6.822  0.93  8.55    -0.022 C 
HETATM   23  C8    D T 602       1.891   8.667  -7.329  0.93 12.58     0.064 C 
HETATM   24  C9    D T 602       1.751   9.052  -8.813  0.93 13.77     0.040 C 
HETATM   25 CL1    D T 602       0.965   7.442  -9.558  0.93 24.65    -0.087 Cl
HETATM   26  C10   D T 602       2.032   9.994  -9.522  0.93 16.75     0.007 C 
HETATM   27  C11   D T 602       2.582  11.134  -8.829  0.93 14.77    -0.001 C 
ENDBRANCH  13  21
ENDBRANCH   1  13
BRANCH  12  28
HETATM   28  C22   D T 602      -2.116  11.426  -6.541  0.93 16.80     0.000 C 
HETATM   29  C23   D T 602      -1.544  10.185  -6.006  0.93 14.45     0.007 C 
HETATM   30  C24   D T 602      -1.968   9.140  -6.820  0.93 15.91     0.040 C 
HETATM   31 CL2    D T 602      -1.319   7.561  -6.297  0.93 18.54    -0.087 Cl
HETATM   32  C25   D T 602      -2.715   9.102  -8.116  0.93 19.85     0.064 C 
HETATM   33  C26   D T 602      -3.345  10.388  -8.332  0.93 17.96    -0.021 C 
HETATM   34  C27   D T 602      -2.942  11.402  -7.623  0.93 18.50    -0.004 C 
ENDBRANCH  12  28
TORSDOF 4
