REMARK  4 active torsions:
REMARK  status: ('A' for Active; 'I' for Inactive)
REMARK    1  A    between atoms: C4_6  and  C5_7 
REMARK    2  A    between atoms: C5_7  and  C6_8 
REMARK    3  A    between atoms: C5_7  and  C12_16 
REMARK    4  A    between atoms: C21_27  and  C22_28 
ROOT
HETATM    1  C12   D T 602       8.591  -7.621   6.841  0.93 11.20    -0.001 C 
HETATM    2  C13   D T 602       9.203  -6.851   6.079  0.93 13.45    -0.005 C 
HETATM    3  C14   D T 602       9.974  -5.905   6.724  0.93 13.80     0.011 C 
HETATM    4  C15   D T 602       8.625  -7.811   8.209  0.93 11.22     0.031 C 
HETATM    5  C16   D T 602       9.340  -6.603   8.995  0.93 16.07     0.048 C 
HETATM    6  C17   D T 602       9.880  -5.628   7.911  0.93 15.64     0.040 C 
HETATM    7  N4    D T 602      10.628  -4.645   8.707  0.93 18.36    -0.297 N 
HETATM    8  C18   D T 602      10.501  -4.569  10.270  0.93 18.78     0.133 C 
HETATM    9  C19   D T 602      11.098  -3.578   8.009  0.93 20.18     0.261 C 
HETATM   10  O1    D T 602      11.628  -2.665   8.690  0.93 23.41    -0.267 OA
HETATM   11  C20   D T 602      11.054  -3.781   6.640  0.93 18.07     0.061 C 
HETATM   12  C21   D T 602      10.669  -4.876   5.946  0.93 15.40     0.006 C 
ENDROOT
BRANCH   1  13
HETATM   13  C5    D T 602       7.985  -8.869   6.183  0.93 11.75     0.334 C 
HETATM   14  N3    D T 602       8.266 -10.190   6.640  0.93 12.53     0.628 N 
BRANCH  13  15
HETATM   15  C4    D T 602       6.390  -8.708   6.633  0.93 10.99     0.082 C 
HETATM   16  N1    D T 602       5.309  -9.506   6.140  0.93 12.88    -0.312 N 
HETATM   17  C1    D T 602       5.254 -10.891   5.483  0.93 11.29     0.132 C 
HETATM   18  C2    D T 602       4.188  -9.068   6.635  0.93 12.15     0.174 C 
HETATM   19  N2    D T 602       4.423  -8.027   7.303  0.93 12.12    -0.246 NA
HETATM   20  C3    D T 602       5.748  -7.529   7.280  0.93 11.32     0.169 C 
ENDBRANCH  13  15
BRANCH  13  21
HETATM   21  C6    D T 602       7.915  -9.002   4.624  0.93 12.23     0.016 C 
HETATM   22  C7    D T 602       7.207  -8.080   3.935  0.93  8.55    -0.022 C 
HETATM   23  C8    D T 602       7.240  -7.885   2.540  0.93 12.58     0.064 C 
HETATM   24  C9    D T 602       8.395  -8.840   2.190  0.93 13.77     0.040 C 
HETATM   25 CL1    D T 602       8.622  -8.496   0.295  0.93 24.65    -0.087 Cl
HETATM   26  C10   D T 602       9.065  -9.677   2.756  0.93 16.75     0.007 C 
HETATM   27  C11   D T 602       8.810  -9.806   4.171  0.93 14.77    -0.001 C 
ENDBRANCH  13  21
ENDBRANCH   1  13
BRANCH  12  28
HETATM   28  C22   D T 602      10.669  -4.923   4.481  0.93 16.80     0.000 C 
HETATM   29  C23   D T 602       9.404  -4.770   3.751  0.93 14.45     0.007 C 
HETATM   30  C24   D T 602       9.692  -4.829   2.391  0.93 15.91     0.040 C 
HETATM   31 CL2    D T 602       8.230  -4.682   1.378  0.93 18.54    -0.087 Cl
HETATM   32  C25   D T 602      10.942  -5.147   1.632  0.93 19.85     0.064 C 
HETATM   33  C26   D T 602      12.074  -5.053   2.530  0.93 17.96    -0.021 C 
HETATM   34  C27   D T 602      11.848  -5.043   3.812  0.93 18.50    -0.004 C 
ENDBRANCH  12  28
TORSDOF 4
