REMARK  2 active torsions:
REMARK  status: ('A' for Active; 'I' for Inactive)
REMARK    1  A    between atoms: C5_4  and  O7_13 
REMARK    2  A    between atoms: C8_10  and  O7_13 
ROOT
HETATM    1  O7    D T 302      34.974 -24.269   1.733  1.00 12.29    -0.304 OA
ENDROOT
BRANCH   1   2
HETATM    2  C5    D T 302      35.812 -24.572   2.759  1.00 11.31     0.125 A 
HETATM    3  C6    D T 302      35.223 -24.994   4.034  1.00 10.91     0.154 A 
HETATM    4  C1    D T 302      36.075 -25.297   5.080  1.00 11.11     0.041 A 
HETATM    5  O17   D T 302      33.878 -25.091   4.157  1.00 10.71    -0.188 OA
HETATM    6  C2    D T 302      37.453 -25.165   4.894  1.00 11.31     0.060 A 
HETATM    7  C3    D T 302      38.009 -24.762   3.697  1.00 11.21     0.014 A 
HETATM    8 CL14   D T 302      38.562 -25.542   6.228  1.00 12.38    -0.082 Cl
HETATM    9  C4    D T 302      37.186 -24.456   2.618  1.00 11.12     0.028 A 
ENDBRANCH   1   2
BRANCH   1  10
HETATM   10  C8    D T 302      34.532 -22.984   1.655  1.00 13.41     0.111 A 
HETATM   11  C9    D T 302      33.537 -22.641   0.633  1.00 14.42     0.081 A 
HETATM   12  C10   D T 302      33.076 -21.356   0.487  1.00 15.02     0.025 A 
HETATM   13 CL16   D T 302      32.967 -23.913  -0.427  1.00 16.61    -0.080 Cl
HETATM   14  C11   D T 302      33.572 -20.394   1.339  1.00 14.88     0.059 A 
HETATM   15  C12   D T 302      34.509 -20.682   2.313  1.00 14.38     0.013 A 
HETATM   16 CL15   D T 302      32.976 -18.736   1.140  1.00 17.32    -0.082 Cl
HETATM   17  C13   D T 302      34.991 -21.965   2.480  1.00 13.78     0.026 A 
ENDBRANCH   1  10
TORSDOF 2
