REMARK  2 active torsions:
REMARK  status: ('A' for Active; 'I' for Inactive)
REMARK    1  A    between atoms: C5_4  and  O7_13 
REMARK    2  A    between atoms: C8_10  and  O7_13 
ROOT
HETATM    1  O7    D T 302       7.527   1.822  -6.108  1.00 12.29    -0.304 OA
ENDROOT
BRANCH   1   2
HETATM    2  C5    D T 302       7.440   1.589  -7.444  1.00 11.31     0.125 A 
HETATM    3  C6    D T 302       7.325   0.199  -7.899  1.00 10.91     0.154 A 
HETATM    4  C1    D T 302       7.242  -0.039  -9.259  1.00 11.11     0.041 A 
HETATM    5  O17   D T 302       7.287  -0.807  -6.994  1.00 10.71    -0.188 OA
HETATM    6  C2    D T 302       7.299   1.041 -10.143  1.00 11.31     0.060 A 
HETATM    7  C3    D T 302       7.414   2.348  -9.717  1.00 11.21     0.014 A 
HETATM    8 CL14   D T 302       7.203   0.753 -11.892  1.00 12.38    -0.082 Cl
HETATM    9  C4    D T 302       7.492   2.631  -8.357  1.00 11.12     0.028 A 
ENDBRANCH   1   2
BRANCH   1  10
HETATM   10  C8    D T 302       8.772   1.813  -5.559  1.00 13.41     0.111 A 
HETATM   11  C9    D T 302       8.902   1.946  -4.103  1.00 14.42     0.081 A 
HETATM   12  C10   D T 302      10.133   1.973  -3.495  1.00 15.02     0.025 A 
HETATM   13 CL16   D T 302       7.440   2.101  -3.153  1.00 16.61    -0.080 Cl
HETATM   14  C11   D T 302      11.249   1.863  -4.296  1.00 14.88     0.059 A 
HETATM   15  C12   D T 302      11.163   1.736  -5.669  1.00 14.38     0.013 A 
HETATM   16 CL15   D T 302      12.834   1.905  -3.503  1.00 17.32    -0.082 Cl
HETATM   17  C13   D T 302       9.938   1.708  -6.306  1.00 13.78     0.026 A 
ENDBRANCH   1  10
TORSDOF 2
