REMARK  2 active torsions:
REMARK  status: ('A' for Active; 'I' for Inactive)
REMARK    1  A    between atoms: C5_4  and  O7_13 
REMARK    2  A    between atoms: C8_10  and  O7_13 
ROOT
HETATM    1  O7    D T 302       6.291   2.479  -6.723  1.00 12.29    -0.304 OA
ENDROOT
BRANCH   1   2
HETATM    2  C5    D T 302       6.094   2.215  -8.041  1.00 11.31     0.125 A 
HETATM    3  C6    D T 302       6.098   0.814  -8.476  1.00 10.91     0.154 A 
HETATM    4  C1    D T 302       5.904   0.545  -9.818  1.00 11.11     0.041 A 
HETATM    5  O17   D T 302       6.276  -0.174  -7.568  1.00 10.71    -0.188 OA
HETATM    6  C2    D T 302       5.738   1.609 -10.708  1.00 11.31     0.060 A 
HETATM    7  C3    D T 302       5.740   2.928 -10.302  1.00 11.21     0.014 A 
HETATM    8 CL14   D T 302       5.495   1.283 -12.436  1.00 12.38    -0.082 Cl
HETATM    9  C4    D T 302       5.925   3.240  -8.959  1.00 11.12     0.028 A 
ENDBRANCH   1   2
BRANCH   1  10
HETATM   10  C8    D T 302       7.579   2.627  -6.308  1.00 13.41     0.111 A 
HETATM   11  C9    D T 302       7.843   2.798  -4.875  1.00 14.42     0.081 A 
HETATM   12  C10   D T 302       9.118   2.981  -4.400  1.00 15.02     0.025 A 
HETATM   13 CL16   D T 302       6.480   2.794  -3.776  1.00 16.61    -0.080 Cl
HETATM   14  C11   D T 302      10.149   2.991  -5.314  1.00 14.88     0.059 A 
HETATM   15  C12   D T 302       9.937   2.832  -6.670  1.00 14.38     0.013 A 
HETATM   16 CL15   D T 302      11.792   3.234  -4.693  1.00 17.32    -0.082 Cl
HETATM   17  C13   D T 302       8.665   2.648  -7.174  1.00 13.78     0.026 A 
ENDBRANCH   1  10
TORSDOF 2
