REMARK  2 active torsions:
REMARK  status: ('A' for Active; 'I' for Inactive)
REMARK    1  A    between atoms: C5_4  and  O7_13 
REMARK    2  A    between atoms: C8_10  and  O7_13 
ROOT
HETATM    1  O7    D T 302       7.785   2.074  -5.821  1.00 12.29    -0.304 OA
ENDROOT
BRANCH   1   2
HETATM    2  C5    D T 302       7.705   1.957  -7.172  1.00 11.31     0.125 A 
HETATM    3  C6    D T 302       7.527   0.617  -7.742  1.00 10.91     0.154 A 
HETATM    4  C1    D T 302       7.452   0.496  -9.118  1.00 11.11     0.041 A 
HETATM    5  O17   D T 302       7.428  -0.457  -6.924  1.00 10.71    -0.188 OA
HETATM    6  C2    D T 302       7.573   1.641  -9.908  1.00 11.31     0.060 A 
HETATM    7  C3    D T 302       7.747   2.901  -9.374  1.00 11.21     0.014 A 
HETATM    8 CL14   D T 302       7.487   1.504 -11.676  1.00 12.38    -0.082 Cl
HETATM    9  C4    D T 302       7.820   3.066  -7.995  1.00 11.12     0.028 A 
ENDBRANCH   1   2
BRANCH   1  10
HETATM   10  C8    D T 302       9.020   1.958  -5.262  1.00 13.41     0.111 A 
HETATM   11  C9    D T 302       9.137   1.963  -3.800  1.00 14.42     0.081 A 
HETATM   12  C10   D T 302      10.359   1.879  -3.180  1.00 15.02     0.025 A 
HETATM   13 CL16   D T 302       7.671   2.112  -2.853  1.00 16.61    -0.080 Cl
HETATM   14  C11   D T 302      11.479   1.779  -3.976  1.00 14.88     0.059 A 
HETATM   15  C12   D T 302      11.406   1.770  -5.356  1.00 14.38     0.013 A 
HETATM   16 CL15   D T 302      13.053   1.676  -3.168  1.00 17.32    -0.082 Cl
HETATM   17  C13   D T 302      10.190   1.856  -6.005  1.00 13.78     0.026 A 
ENDBRANCH   1  10
TORSDOF 2
