REMARK  9 active torsions:
REMARK  status: ('A' for Active; 'I' for Inactive)
REMARK    1  A    between atoms: O02_2  and  CAX_24 
REMARK    2  A    between atoms: CAC_3  and  CAM_13 
REMARK    3  A    between atoms: CAC_3  and  NBH_34 
REMARK    4  A    between atoms: CAM_13  and  CAN_14 
REMARK    5  A    between atoms: CAN_14  and  OAW_23 
REMARK    6  A    between atoms: NAU_21  and  CBB_28 
REMARK    7  A    between atoms: NAU_21  and  CBE_31 
REMARK    8  A    between atoms: OAV_22  and  CBC_29 
REMARK    9  A    between atoms: OAW_23  and  CBD_30 
ROOT
HETATM    1  NAD   D T 601      -0.848  -2.939  -4.274  1.00 28.99    -0.191 NA
HETATM    2  CAG   D T 601      -1.287  -3.934  -4.613  1.00 27.03     0.100 C 
HETATM    3  CAH   D T 601      -1.154  -6.507  -4.768  1.00 28.35     0.163 A 
HETATM    4  CAK   D T 601      -3.553  -9.279  -6.064  1.00 33.01     0.098 A 
HETATM    5  CAL   D T 601      -5.104  -6.817  -6.783  1.00 31.90     0.082 A 
HETATM    6  NAT   D T 601      -1.674  -7.777  -5.163  1.00 30.45    -0.269 NA
HETATM    7  CBA   D T 601      -1.872  -5.232  -5.070  1.00 26.47     0.088 A 
HETATM    8  CBC   D T 601      -5.696  -8.179  -6.981  1.00 33.79     0.095 A 
HETATM    9  CBD   D T 601      -4.939  -9.398  -6.633  1.00 33.97     0.096 A 
HETATM   10  CBE   D T 601      -3.189  -5.301  -5.813  1.00 30.40     0.086 A 
HETATM   11  CBF   D T 601      -2.919  -7.909  -5.871  1.00 31.90     0.059 A 
HETATM   12  CBG   D T 601      -3.714  -6.676  -6.229  1.00 31.93     0.016 A 
ENDROOT
BRANCH  10  13
HETATM   13  NAU   D T 601      -4.023  -4.125  -6.046  1.00 32.72    -0.249 NA
BRANCH  13  14
HETATM   14  CBB   D T 601      -3.377  -2.841  -6.230  1.00 32.22     0.072 A 
HETATM   15  CAJ   D T 601      -2.269  -2.696  -7.229  1.00 30.11     0.098 A 
HETATM   16  CAX   D T 601      -1.618  -1.365  -7.391  1.00 35.35     0.085 A 
HETATM   17  CAY   D T 601      -2.059  -0.200  -6.573  1.00 37.92     0.059 A 
HETATM   18 CL1    D T 601      -1.293   1.325  -6.782  1.00 48.49    -0.085 Cl
HETATM   19  CAI   D T 601      -3.160  -0.348  -5.585  1.00 37.15     0.079 A 
HETATM   20  CAZ   D T 601      -3.811  -1.673  -5.416  1.00 32.75     0.055 A 
HETATM   21 CL2    D T 601      -5.085  -1.867  -4.268  1.00 34.14    -0.085 Cl
BRANCH  16  22
HETATM   22  O02   D T 601      -0.612  -1.228  -8.300  1.00 37.60    -0.331 OA
HETATM   23  C01   D T 601      -0.152  -2.398  -8.886  1.00 39.30     0.181 C 
ENDBRANCH  16  22
ENDBRANCH  13  14
ENDBRANCH  10  13
BRANCH   8  24
HETATM   24  OAV   D T 601      -6.965  -8.274  -7.496  1.00 41.17    -0.330 OA
HETATM   25  CAA   D T 601      -7.612  -7.082  -7.791  1.00 35.24     0.181 C 
ENDBRANCH   8  24
BRANCH   9  26
HETATM   26  OAW   D T 601      -5.520 -10.655  -6.831  1.00 30.65    -0.333 OA
BRANCH  26  27
HETATM   27  CAN   D T 601      -4.766 -11.807  -6.575  1.00 31.03     0.150 C 
BRANCH  27  28
HETATM   28  CAM   D T 601      -5.417 -13.023  -7.246  1.00 38.93     0.056 C 
BRANCH  28  29
HETATM   29  CAC   D T 601      -6.903 -13.031  -6.935  1.00 41.72     0.100 C 
BRANCH  29  30
HETATM   30  NBH   D T 601      -7.330 -14.443  -6.668  1.00 46.45    -0.365 N 
HETATM   31  CAP   D T 601      -8.503 -14.769  -5.855  1.00 43.76     0.121 C 
HETATM   32  CAR   D T 601      -8.919 -16.226  -6.128  1.00 49.42     0.121 C 
HETATM   33  NBI   D T 601      -7.813 -17.100  -5.843  1.00 58.88    -0.364 N 
HETATM   34  CAO   D T 601      -8.149 -18.491  -5.564  1.00 56.16     0.121 C 
HETATM   35  CAS   D T 601      -6.674 -16.758  -6.645  1.00 59.74     0.121 C 
HETATM   36  CAQ   D T 601      -6.247 -15.349  -6.370  1.00 48.54     0.121 C 
ENDBRANCH  29  30
ENDBRANCH  28  29
ENDBRANCH  27  28
ENDBRANCH  26  27
ENDBRANCH   9  26
TORSDOF 9
