REMARK  9 active torsions:
REMARK  status: ('A' for Active; 'I' for Inactive)
REMARK    1  A    between atoms: O02_2  and  CAX_24 
REMARK    2  A    between atoms: CAC_3  and  CAM_13 
REMARK    3  A    between atoms: CAC_3  and  NBH_34 
REMARK    4  A    between atoms: CAM_13  and  CAN_14 
REMARK    5  A    between atoms: CAN_14  and  OAW_23 
REMARK    6  A    between atoms: NAU_21  and  CBB_28 
REMARK    7  A    between atoms: NAU_21  and  CBE_31 
REMARK    8  A    between atoms: OAV_22  and  CBC_29 
REMARK    9  A    between atoms: OAW_23  and  CBD_30 
ROOT
HETATM    1  NAD   D T 601       4.480   0.295  -8.735  1.00 28.99    -0.191 NA
HETATM    2  CAG   D T 601       5.283   1.036  -8.412  1.00 27.03     0.100 C 
HETATM    3  CAH   D T 601       6.159   3.457  -8.233  1.00 28.35     0.163 A 
HETATM    4  CAK   D T 601       9.250   5.112  -6.551  1.00 33.01     0.098 A 
HETATM    5  CAL   D T 601       9.806   2.216  -6.016  1.00 31.90     0.082 A 
HETATM    6  NAT   D T 601       7.133   4.421  -7.834  1.00 30.45    -0.269 NA
HETATM    7  CBA   D T 601       6.348   1.995  -7.988  1.00 26.47     0.088 A 
HETATM    8  CBC   D T 601      10.683   3.283  -5.436  1.00 33.79     0.095 A 
HETATM    9  CBD   D T 601      10.419   4.713  -5.696  1.00 33.97     0.096 A 
HETATM   10  CBE   D T 601       7.612   1.536  -7.292  1.00 30.40     0.086 A 
HETATM   11  CBF   D T 601       8.353   4.048  -7.169  1.00 31.90     0.059 A 
HETATM   12  CBG   D T 601       8.639   2.593  -6.885  1.00 31.93     0.016 A 
ENDROOT
BRANCH  10  13
HETATM   13  NAU   D T 601       7.832   0.147  -6.900  1.00 32.72    -0.249 NA
BRANCH  13  14
HETATM   14  CBB   D T 601       7.266  -0.906  -7.720  1.00 32.22     0.072 A 
HETATM   15  CAJ   D T 601       7.502  -0.911  -9.200  1.00 30.11     0.098 A 
HETATM   16  CAX   D T 601       6.901  -2.001 -10.019  1.00 35.35     0.085 A 
HETATM   17  CAY   D T 601       6.077  -3.064  -9.379  1.00 37.92     0.059 A 
HETATM   18 CL1    D T 601       5.397  -4.312 -10.347  1.00 48.49    -0.085 Cl
HETATM   19  CAI   D T 601       5.846  -3.056  -7.910  1.00 37.15     0.079 A 
HETATM   20  CAZ   D T 601       6.441  -1.971  -7.088  1.00 32.75     0.055 A 
HETATM   21 CL2    D T 601       6.177  -1.938  -5.382  1.00 34.14    -0.085 Cl
BRANCH  16  22
HETATM   22  O02   D T 601       7.117  -2.012 -11.365  1.00 37.60    -0.331 OA
HETATM   23  C01   D T 601       7.744  -0.894 -11.894  1.00 39.30     0.181 C 
ENDBRANCH  16  22
ENDBRANCH  13  14
ENDBRANCH  10  13
BRANCH   8  24
HETATM   24  OAV   D T 601      11.745   2.905  -4.653  1.00 41.17    -0.330 OA
HETATM   25  CAA   D T 601      11.922   1.544  -4.451  1.00 35.24     0.181 C 
ENDBRANCH   8  24
BRANCH   9  26
HETATM   26  OAW   D T 601      11.258   5.684  -5.141  1.00 30.65    -0.333 OA
BRANCH  26  27
HETATM   27  CAN   D T 601      11.050   7.033  -5.459  1.00 31.03     0.150 C 
BRANCH  27  28
HETATM   28  CAM   D T 601      12.296   7.855  -5.109  1.00 38.93     0.056 C 
BRANCH  28  29
HETATM   29  CAC   D T 601      12.760   7.491  -3.710  1.00 41.72     0.100 C 
BRANCH  29  30
HETATM   30  NBH   D T 601      13.194   8.742  -3.007  1.00 46.45    -0.365 N 
HETATM   31  CAP   D T 601      13.197   8.864  -1.548  1.00 43.76     0.121 C 
HETATM   32  CAR   D T 601      14.081  10.057  -1.141  1.00 49.42     0.121 C 
HETATM   33  NBI   D T 601      13.591  11.251  -1.775  1.00 58.88    -0.364 N 
HETATM   34  CAO   D T 601      13.965  12.512  -1.143  1.00 56.16     0.121 C 
HETATM   35  CAS   D T 601      13.590  11.108  -3.202  1.00 59.74     0.121 C 
HETATM   36  CAQ   D T 601      12.715   9.963  -3.610  1.00 48.54     0.121 C 
ENDBRANCH  29  30
ENDBRANCH  28  29
ENDBRANCH  27  28
ENDBRANCH  26  27
ENDBRANCH   9  26
TORSDOF 9
