REMARK  9 active torsions:
REMARK  status: ('A' for Active; 'I' for Inactive)
REMARK    1  A    between atoms: O02_2  and  CAX_24 
REMARK    2  A    between atoms: CAC_3  and  CAM_13 
REMARK    3  A    between atoms: CAC_3  and  NBH_34 
REMARK    4  A    between atoms: CAM_13  and  CAN_14 
REMARK    5  A    between atoms: CAN_14  and  OAW_23 
REMARK    6  A    between atoms: NAU_21  and  CBB_28 
REMARK    7  A    between atoms: NAU_21  and  CBE_31 
REMARK    8  A    between atoms: OAV_22  and  CBC_29 
REMARK    9  A    between atoms: OAW_23  and  CBD_30 
ROOT
HETATM    1  NAD   D T 601      -6.108   3.908  -4.457  1.00 28.99    -0.191 NA
HETATM    2  CAG   D T 601      -6.829   3.249  -5.043  1.00 27.03     0.100 C 
HETATM    3  CAH   D T 601      -7.283   1.173  -6.508  1.00 28.35     0.163 A 
HETATM    4  CAK   D T 601     -10.490  -0.493  -7.944  1.00 33.01     0.098 A 
HETATM    5  CAL   D T 601     -11.659   1.940  -6.640  1.00 31.90     0.082 A 
HETATM    6  NAT   D T 601      -8.152   0.313  -7.244  1.00 30.45    -0.269 NA
HETATM    7  CBA   D T 601      -7.785   2.397  -5.813  1.00 26.47     0.088 A 
HETATM    8  CBC   D T 601     -12.547   0.893  -7.241  1.00 33.79     0.095 A 
HETATM    9  CBD   D T 601     -11.980  -0.307  -7.888  1.00 33.97     0.096 A 
HETATM   10  CBE   D T 601      -9.263   2.719  -5.894  1.00 30.40     0.086 A 
HETATM   11  CBF   D T 601      -9.563   0.565  -7.358  1.00 31.90     0.059 A 
HETATM   12  CBG   D T 601     -10.165   1.781  -6.697  1.00 31.93     0.016 A 
ENDROOT
BRANCH  10  13
HETATM   13  NAU   D T 601      -9.869   3.820  -5.150  1.00 32.72    -0.249 NA
BRANCH  13  14
HETATM   14  CBB   D T 601      -9.079   5.010  -4.903  1.00 32.22     0.072 A 
HETATM   15  CAJ   D T 601      -8.374   5.691  -6.037  1.00 30.11     0.098 A 
HETATM   16  CAX   D T 601      -7.563   6.908  -5.750  1.00 35.35     0.085 A 
HETATM   17  CAY   D T 601      -7.452   7.436  -4.362  1.00 37.92     0.059 A 
HETATM   18 CL1    D T 601      -6.511   8.843  -4.060  1.00 48.49    -0.085 Cl
HETATM   19  CAI   D T 601      -8.153   6.758  -3.240  1.00 37.15     0.079 A 
HETATM   20  CAZ   D T 601      -8.962   5.543  -3.518  1.00 32.75     0.055 A 
HETATM   21 CL2    D T 601      -9.776   4.736  -2.228  1.00 34.14    -0.085 Cl
BRANCH  16  22
HETATM   22  O02   D T 601      -6.924   7.533  -6.779  1.00 37.60    -0.331 OA
HETATM   23  C01   D T 601      -6.940   6.875  -8.001  1.00 39.30     0.181 C 
ENDBRANCH  16  22
ENDBRANCH  13  14
ENDBRANCH  10  13
BRANCH   8  24
HETATM   24  OAV   D T 601     -13.906   1.072  -7.180  1.00 41.17    -0.330 OA
HETATM   25  CAA   D T 601     -14.359   2.222  -6.550  1.00 35.24     0.181 C 
ENDBRANCH   8  24
BRANCH   9  26
HETATM   26  OAW   D T 601     -12.836  -1.265  -8.441  1.00 30.65    -0.333 OA
BRANCH  26  27
HETATM   27  CAN   D T 601     -12.290  -2.359  -9.124  1.00 31.03     0.150 C 
BRANCH  27  28
HETATM   28  CAM   D T 601     -13.364  -3.028  -9.992  1.00 38.93     0.056 C 
BRANCH  28  29
HETATM   29  CAC   D T 601     -14.622  -3.228  -9.167  1.00 41.72     0.100 C 
BRANCH  29  30
HETATM   30  NBH   D T 601     -15.209  -4.566  -9.502  1.00 46.45    -0.365 N 
HETATM   31  CAP   D T 601     -16.073  -5.300  -8.575  1.00 43.76     0.121 C 
HETATM   32  CAR   D T 601     -16.843  -6.383  -9.352  1.00 49.42     0.121 C 
HETATM   33  NBI   D T 601     -15.908  -7.254 -10.013  1.00 58.88    -0.364 N 
HETATM   34  CAO   D T 601     -16.404  -8.579 -10.365  1.00 56.16     0.121 C 
HETATM   35  CAS   D T 601     -15.069  -6.513 -10.909  1.00 59.74     0.121 C 
HETATM   36  CAQ   D T 601     -14.297  -5.471 -10.159  1.00 48.54     0.121 C 
ENDBRANCH  29  30
ENDBRANCH  28  29
ENDBRANCH  27  28
ENDBRANCH  26  27
ENDBRANCH   9  26
TORSDOF 9
