REMARK  9 active torsions:
REMARK  status: ('A' for Active; 'I' for Inactive)
REMARK    1  A    between atoms: O02_2  and  CAX_24 
REMARK    2  A    between atoms: CAC_3  and  CAM_13 
REMARK    3  A    between atoms: CAC_3  and  NBH_34 
REMARK    4  A    between atoms: CAM_13  and  CAN_14 
REMARK    5  A    between atoms: CAN_14  and  OAW_23 
REMARK    6  A    between atoms: NAU_21  and  CBB_28 
REMARK    7  A    between atoms: NAU_21  and  CBE_31 
REMARK    8  A    between atoms: OAV_22  and  CBC_29 
REMARK    9  A    between atoms: OAW_23  and  CBD_30 
ROOT
HETATM    1  NAD   D T 601      -2.241   4.118   6.365  1.00 28.99    -0.191 NA
HETATM    2  CAG   D T 601      -1.351   3.958   7.058  1.00 27.03     0.100 C 
HETATM    3  CAH   D T 601      -0.046   2.487   8.729  1.00 28.35     0.163 A 
HETATM    4  CAK   D T 601       3.382   2.812  10.536  1.00 33.01     0.098 A 
HETATM    5  CAL   D T 601       3.248   5.447   9.114  1.00 31.90     0.082 A 
HETATM    6  NAT   D T 601       1.059   2.240   9.599  1.00 30.45    -0.269 NA
HETATM    7  CBA   D T 601      -0.181   3.766   7.969  1.00 26.47     0.088 A 
HETATM    8  CBC   D T 601       4.479   5.047   9.867  1.00 33.79     0.095 A 
HETATM    9  CBD   D T 601       4.554   3.752  10.574  1.00 33.97     0.096 A 
HETATM   10  CBE   D T 601       0.893   4.820   8.129  1.00 30.40     0.086 A 
HETATM   11  CBF   D T 601       2.111   3.201   9.794  1.00 31.90     0.059 A 
HETATM   12  CBG   D T 601       2.059   4.528   9.075  1.00 31.93     0.016 A 
ENDROOT
BRANCH  10  13
HETATM   13  NAU   D T 601       0.914   6.048   7.338  1.00 32.72    -0.249 NA
BRANCH  13  14
HETATM   14  CBB   D T 601      -0.347   6.633   6.930  1.00 32.22     0.072 A 
HETATM   15  CAJ   D T 601      -1.421   6.882   7.945  1.00 30.11     0.098 A 
HETATM   16  CAX   D T 601      -2.710   7.478   7.495  1.00 35.35     0.085 A 
HETATM   17  CAY   D T 601      -2.929   7.818   6.061  1.00 37.92     0.059 A 
HETATM   18 CL1    D T 601      -4.426   8.507   5.569  1.00 48.49    -0.085 Cl
HETATM   19  CAI   D T 601      -1.861   7.571   5.057  1.00 37.15     0.079 A 
HETATM   20  CAZ   D T 601      -0.574   6.974   5.499  1.00 32.75     0.055 A 
HETATM   21 CL2    D T 601       0.676   6.672   4.347  1.00 34.14    -0.085 Cl
BRANCH  16  22
HETATM   22  O02   D T 601      -3.689   7.709   8.416  1.00 37.60    -0.331 OA
HETATM   23  C01   D T 601      -3.465   7.203   9.688  1.00 39.30     0.181 C 
ENDBRANCH  16  22
ENDBRANCH  13  14
ENDBRANCH  10  13
BRANCH   8  24
HETATM   24  OAV   D T 601       5.544   5.912   9.890  1.00 41.17    -0.330 OA
HETATM   25  CAA   D T 601       5.397   7.105   9.197  1.00 35.24     0.181 C 
ENDBRANCH   8  24
BRANCH   9  26
HETATM   26  OAW   D T 601       5.718   3.409  11.270  1.00 30.65    -0.333 OA
BRANCH  26  27
HETATM   27  CAN   D T 601       5.751   2.217  12.004  1.00 31.03     0.150 C 
BRANCH  27  28
HETATM   28  CAM   D T 601       6.914   2.246  13.004  1.00 38.93     0.056 C 
BRANCH  28  29
HETATM   29  CAC   D T 601       8.174   2.709  12.293  1.00 41.72     0.100 C 
BRANCH  29  30
HETATM   30  NBH   D T 601       9.331   1.893  12.786  1.00 46.45    -0.365 N 
HETATM   31  CAP   D T 601      10.545   1.690  11.994  1.00 43.76     0.121 C 
HETATM   32  CAR   D T 601      11.677   1.205  12.917  1.00 49.42     0.121 C 
HETATM   33  NBI   D T 601      11.266  -0.003  13.580  1.00 58.88    -0.364 N 
HETATM   34  CAO   D T 601      12.338  -0.856  14.082  1.00 56.16     0.121 C 
HETATM   35  CAS   D T 601      10.072   0.216  14.345  1.00 59.74     0.121 C 
HETATM   36  CAQ   D T 601       8.958   0.668  13.452  1.00 48.54     0.121 C 
ENDBRANCH  29  30
ENDBRANCH  28  29
ENDBRANCH  27  28
ENDBRANCH  26  27
ENDBRANCH   9  26
TORSDOF 9
