REMARK  9 active torsions:
REMARK  status: ('A' for Active; 'I' for Inactive)
REMARK    1  A    between atoms: O02_2  and  CAX_24 
REMARK    2  A    between atoms: CAC_3  and  CAM_13 
REMARK    3  A    between atoms: CAC_3  and  NBH_34 
REMARK    4  A    between atoms: CAM_13  and  CAN_14 
REMARK    5  A    between atoms: CAN_14  and  OAW_23 
REMARK    6  A    between atoms: NAU_21  and  CBB_28 
REMARK    7  A    between atoms: NAU_21  and  CBE_31 
REMARK    8  A    between atoms: OAV_22  and  CBC_29 
REMARK    9  A    between atoms: OAW_23  and  CBD_30 
ROOT
HETATM    1  NAD   D T 601       0.239  10.686   1.285  1.00 28.99    -0.191 NA
HETATM    2  CAG   D T 601       1.258  10.590   1.785  1.00 27.03     0.100 C 
HETATM    3  CAH   D T 601       2.891   9.309   3.320  1.00 28.35     0.163 A 
HETATM    4  CAK   D T 601       6.631   9.757   4.286  1.00 33.01     0.098 A 
HETATM    5  CAL   D T 601       6.199  12.185   2.583  1.00 31.90     0.082 A 
HETATM    6  NAT   D T 601       4.158   9.143   3.957  1.00 30.45    -0.269 NA
HETATM    7  CBA   D T 601       2.597  10.481   2.440  1.00 26.47     0.088 A 
HETATM    8  CBC   D T 601       7.563  11.848   3.101  1.00 33.79     0.095 A 
HETATM    9  CBD   D T 601       7.786  10.655   3.944  1.00 33.97     0.096 A 
HETATM   10  CBE   D T 601       3.685  11.512   2.222  1.00 30.40     0.086 A 
HETATM   11  CBF   D T 601       5.230  10.087   3.789  1.00 31.90     0.059 A 
HETATM   12  CBG   D T 601       5.027  11.308   2.925  1.00 31.93     0.016 A 
ENDROOT
BRANCH  10  13
HETATM   13  NAU   D T 601       3.537  12.623   1.286  1.00 32.72    -0.249 NA
BRANCH  13  14
HETATM   14  CBB   D T 601       2.219  13.191   1.083  1.00 32.22     0.072 A 
HETATM   15  CAJ   D T 601       1.392  13.606   2.262  1.00 30.11     0.098 A 
HETATM   16  CAX   D T 601       0.038  14.179   2.023  1.00 35.35     0.085 A 
HETATM   17  CAY   D T 601      -0.486  14.334   0.638  1.00 37.92     0.059 A 
HETATM   18 CL1    D T 601      -2.052  15.001   0.390  1.00 48.49    -0.085 Cl
HETATM   19  CAI   D T 601       0.337  13.923  -0.530  1.00 37.15     0.079 A 
HETATM   20  CAZ   D T 601       1.688  13.348  -0.299  1.00 32.75     0.055 A 
HETATM   21 CL2    D T 601       2.656  12.856  -1.640  1.00 34.14    -0.085 Cl
BRANCH  16  22
HETATM   22  O02   D T 601      -0.716  14.561   3.093  1.00 37.60    -0.331 OA
HETATM   23  C01   D T 601      -0.223  14.220   4.344  1.00 39.30     0.181 C 
ENDBRANCH  16  22
ENDBRANCH  13  14
ENDBRANCH  10  13
BRANCH   8  24
HETATM   24  OAV   D T 601       8.611  12.673   2.777  1.00 41.17    -0.330 OA
HETATM   25  CAA   D T 601       8.321  13.769   1.977  1.00 35.24     0.181 C 
ENDBRANCH   8  24
BRANCH   9  26
HETATM   26  OAW   D T 601       9.072  10.369   4.413  1.00 30.65    -0.333 OA
BRANCH  26  27
HETATM   27  CAN   D T 601       9.260   9.283   5.278  1.00 31.03     0.150 C 
BRANCH  27  28
HETATM   28  CAM   D T 601      10.613   9.405   5.990  1.00 38.93     0.056 C 
BRANCH  28  29
HETATM   29  CAC   D T 601      11.689   9.730   4.969  1.00 41.72     0.100 C 
BRANCH  29  30
HETATM   30  NBH   D T 601      12.923   8.949   5.308  1.00 46.45    -0.365 N 
HETATM   31  CAP   D T 601      13.935   8.604   4.308  1.00 43.76     0.121 C 
HETATM   32  CAR   D T 601      15.239   8.207   5.023  1.00 49.42     0.121 C 
HETATM   33  NBI   D T 601      14.979   7.111   5.916  1.00 58.88    -0.364 N 
HETATM   34  CAO   D T 601      16.131   6.297   6.287  1.00 56.16     0.121 C 
HETATM   35  CAS   D T 601      13.981   7.468   6.883  1.00 59.74     0.121 C 
HETATM   36  CAQ   D T 601      12.700   7.834   6.198  1.00 48.54     0.121 C 
ENDBRANCH  29  30
ENDBRANCH  28  29
ENDBRANCH  27  28
ENDBRANCH  26  27
ENDBRANCH   9  26
TORSDOF 9
