REMARK  9 active torsions:
REMARK  status: ('A' for Active; 'I' for Inactive)
REMARK    1  A    between atoms: O02_2  and  CAX_24 
REMARK    2  A    between atoms: CAC_3  and  CAM_13 
REMARK    3  A    between atoms: CAC_3  and  NBH_34 
REMARK    4  A    between atoms: CAM_13  and  CAN_14 
REMARK    5  A    between atoms: CAN_14  and  OAW_23 
REMARK    6  A    between atoms: NAU_21  and  CBB_28 
REMARK    7  A    between atoms: NAU_21  and  CBE_31 
REMARK    8  A    between atoms: OAV_22  and  CBC_29 
REMARK    9  A    between atoms: OAW_23  and  CBD_30 
ROOT
HETATM    1  NAD   D T 601       4.322  -1.231  -8.027  1.00 36.67    -0.191 NA
HETATM    2  CAG   D T 601       4.269  -0.142  -8.369  1.00 40.62     0.100 C 
HETATM    3  CAH   D T 601       3.245   1.841  -9.751  1.00 40.82     0.163 A 
HETATM    4  CAK   D T 601       4.179   5.628 -10.038  1.00 41.85     0.098 A 
HETATM    5  CAL   D T 601       6.272   4.666  -8.078  1.00 41.71     0.082 A 
HETATM    6  NAT   D T 601       3.236   3.223 -10.142  1.00 40.70    -0.269 NA
HETATM    7  CBA   D T 601       4.259   1.302  -8.781  1.00 42.63     0.088 A 
HETATM    8  CBC   D T 601       6.231   6.092  -8.505  1.00 44.75     0.095 A 
HETATM    9  CBD   D T 601       5.201   6.565  -9.467  1.00 42.74     0.096 A 
HETATM   10  CBE   D T 601       5.300   2.239  -8.197  1.00 42.11     0.086 A 
HETATM   11  CBF   D T 601       4.200   4.165  -9.622  1.00 42.67     0.059 A 
HETATM   12  CBG   D T 601       5.260   3.704  -8.636  1.00 42.82     0.016 A 
ENDROOT
BRANCH  10  13
HETATM   13  NAU   D T 601       6.325   1.779  -7.245  1.00 38.25    -0.249 NA
BRANCH  13  14
HETATM   14  CBB   D T 601       6.733   0.387  -7.294  1.00 33.72     0.072 A 
HETATM   15  CAJ   D T 601       7.059  -0.234  -8.632  1.00 33.21     0.098 A 
HETATM   16  CAX   D T 601       7.465  -1.674  -8.692  1.00 37.63     0.085 A 
HETATM   17  CAY   D T 601       7.547  -2.474  -7.420  1.00 36.54     0.059 A 
HETATM   18 CL1    D T 601       8.017  -4.132  -7.456  1.00 50.79    -0.085 Cl
HETATM   19  CAI   D T 601       7.227  -1.867  -6.097  1.00 37.60     0.079 A 
HETATM   20  CAZ   D T 601       6.816  -0.435  -6.033  1.00 38.37     0.055 A 
HETATM   21 CL2    D T 601       6.464   0.241  -4.478  1.00 54.43    -0.085 Cl
BRANCH  16  22
HETATM   22  O02   D T 601       7.766  -2.259  -9.908  1.00 44.36    -0.331 OA
HETATM   23  C01   D T 601       7.523  -1.590 -11.104  1.00 40.82     0.181 C 
ENDBRANCH  16  22
ENDBRANCH  13  14
ENDBRANCH  10  13
BRANCH   8  24
HETATM   24  OAV   D T 601       7.152   6.976  -7.993  1.00 49.70    -0.330 OA
HETATM   25  CAA   D T 601       6.731   7.865  -7.007  1.00 47.61     0.181 C 
ENDBRANCH   8  24
BRANCH   9  26
HETATM   26  OAW   D T 601       5.197   7.911  -9.826  1.00 41.04    -0.333 OA
BRANCH  26  27
HETATM   27  CAN   D T 601       4.041   8.489 -10.347  1.00 40.75     0.150 C 
BRANCH  27  28
HETATM   28  CAM   D T 601       4.300   9.972 -10.610  1.00 48.68     0.056 C 
BRANCH  28  29
HETATM   29  CAC   D T 601       4.515  10.697  -9.291  1.00 51.94     0.100 C 
BRANCH  29  30
HETATM   30  NBH   D T 601       3.848  12.040  -9.377  1.00 61.07    -0.365 N 
HETATM   31  CAP   D T 601       2.938  12.563  -8.349  1.00 58.61     0.121 C 
HETATM   32  CAR   D T 601       2.935  14.102  -8.447  1.00 61.37     0.121 C 
HETATM   33  NBI   D T 601       2.582  14.528  -9.780  1.00 69.25    -0.364 N 
HETATM   34  CAO   D T 601       2.221  15.936  -9.896  1.00 67.03     0.121 C 
HETATM   35  CAS   D T 601       3.400  13.913 -10.791  1.00 66.03     0.121 C 
HETATM   36  CAQ   D T 601       3.357  12.420 -10.683  1.00 59.16     0.121 C 
ENDBRANCH  29  30
ENDBRANCH  28  29
ENDBRANCH  27  28
ENDBRANCH  26  27
ENDBRANCH   9  26
TORSDOF 9
