REMARK  9 active torsions:
REMARK  status: ('A' for Active; 'I' for Inactive)
REMARK    1  A    between atoms: O02_2  and  CAX_24 
REMARK    2  A    between atoms: CAC_3  and  CAM_13 
REMARK    3  A    between atoms: CAC_3  and  NBH_34 
REMARK    4  A    between atoms: CAM_13  and  CAN_14 
REMARK    5  A    between atoms: CAN_14  and  OAW_23 
REMARK    6  A    between atoms: NAU_21  and  CBB_28 
REMARK    7  A    between atoms: NAU_21  and  CBE_31 
REMARK    8  A    between atoms: OAV_22  and  CBC_29 
REMARK    9  A    between atoms: OAW_23  and  CBD_30 
ROOT
HETATM    1  NAD   D T 601       4.641   0.145  -8.594  1.00 36.67    -0.191 NA
HETATM    2  CAG   D T 601       5.387   0.960  -8.299  1.00 40.62     0.100 C 
HETATM    3  CAH   D T 601       6.268   3.432  -8.247  1.00 40.82     0.163 A 
HETATM    4  CAK   D T 601       9.432   5.083  -6.648  1.00 41.85     0.098 A 
HETATM    5  CAL   D T 601       9.826   2.191  -5.853  1.00 41.71     0.082 A 
HETATM    6  NAT   D T 601       7.243   4.407  -7.846  1.00 40.70    -0.269 NA
HETATM    7  CBA   D T 601       6.407   1.981  -7.883  1.00 42.63     0.088 A 
HETATM    8  CBC   D T 601      10.816   3.230  -5.454  1.00 44.75     0.095 A 
HETATM    9  CBD   D T 601      10.622   4.651  -5.844  1.00 42.74     0.096 A 
HETATM   10  CBE   D T 601       7.606   1.530  -7.071  1.00 42.11     0.086 A 
HETATM   11  CBF   D T 601       8.407   4.042  -7.072  1.00 42.67     0.059 A 
HETATM   12  CBG   D T 601       8.625   2.596  -6.662  1.00 42.82     0.016 A 
ENDROOT
BRANCH  10  13
HETATM   13  NAU   D T 601       7.808   0.125  -6.682  1.00 38.25    -0.249 NA
BRANCH  13  14
HETATM   14  CBB   D T 601       7.230  -0.910  -7.520  1.00 33.72     0.072 A 
HETATM   15  CAJ   D T 601       7.420  -0.831  -9.017  1.00 33.21     0.098 A 
HETATM   16  CAX   D T 601       6.813  -1.886  -9.889  1.00 37.63     0.085 A 
HETATM   17  CAY   D T 601       6.031  -3.008  -9.259  1.00 36.54     0.059 A 
HETATM   18 CL1    D T 601       5.326  -4.240 -10.236  1.00 50.79    -0.085 Cl
HETATM   19  CAI   D T 601       5.841  -3.091  -7.784  1.00 37.60     0.079 A 
HETATM   20  CAZ   D T 601       6.438  -2.040  -6.912  1.00 38.37     0.055 A 
HETATM   21 CL2    D T 601       6.208  -2.175  -5.200  1.00 54.43    -0.085 Cl
BRANCH  16  22
HETATM   22  O02   D T 601       6.976  -1.830 -11.260  1.00 44.36    -0.331 OA
HETATM   23  C01   D T 601       7.538  -0.712 -11.869  1.00 40.82     0.181 C 
ENDBRANCH  16  22
ENDBRANCH  13  14
ENDBRANCH  10  13
BRANCH   8  24
HETATM   24  OAV   D T 601      11.914   2.865  -4.710  1.00 49.70    -0.330 OA
HETATM   25  CAA   D T 601      11.918   3.170  -3.351  1.00 47.61     0.181 C 
ENDBRANCH   8  24
BRANCH   9  26
HETATM   26  OAW   D T 601      11.569   5.587  -5.436  1.00 41.04    -0.333 OA
BRANCH  26  27
HETATM   27  CAN   D T 601      11.235   6.938  -5.381  1.00 40.75     0.150 C 
BRANCH  27  28
HETATM   28  CAM   D T 601      12.436   7.729  -4.864  1.00 48.68     0.056 C 
BRANCH  28  29
HETATM   29  CAC   D T 601      12.710   7.356  -3.416  1.00 51.94     0.100 C 
BRANCH  29  30
HETATM   30  NBH   D T 601      13.104   8.602  -2.675  1.00 61.07    -0.365 N 
HETATM   31  CAP   D T 601      12.509   9.009  -1.395  1.00 58.61     0.121 C 
HETATM   32  CAR   D T 601      13.513   9.926  -0.668  1.00 61.37     0.121 C 
HETATM   33  NBI   D T 601      13.876  11.048  -1.501  1.00 69.25    -0.364 N 
HETATM   34  CAO   D T 601      14.541  12.140  -0.799  1.00 67.03     0.121 C 
HETATM   35  CAS   D T 601      14.341  10.642  -2.800  1.00 66.03     0.121 C 
HETATM   36  CAQ   D T 601      13.330   9.776  -3.487  1.00 59.16     0.121 C 
ENDBRANCH  29  30
ENDBRANCH  28  29
ENDBRANCH  27  28
ENDBRANCH  26  27
ENDBRANCH   9  26
TORSDOF 9
