REMARK  9 active torsions:
REMARK  status: ('A' for Active; 'I' for Inactive)
REMARK    1  A    between atoms: O02_2  and  CAX_24 
REMARK    2  A    between atoms: CAC_3  and  CAM_13 
REMARK    3  A    between atoms: CAC_3  and  NBH_34 
REMARK    4  A    between atoms: CAM_13  and  CAN_14 
REMARK    5  A    between atoms: CAN_14  and  OAW_23 
REMARK    6  A    between atoms: NAU_21  and  CBB_28 
REMARK    7  A    between atoms: NAU_21  and  CBE_31 
REMARK    8  A    between atoms: OAV_22  and  CBC_29 
REMARK    9  A    between atoms: OAW_23  and  CBD_30 
ROOT
HETATM    1  NAD   D T 601      -6.292   4.011  -4.324  1.00 36.67    -0.191 NA
HETATM    2  CAG   D T 601      -6.939   3.290  -4.933  1.00 40.62     0.100 C 
HETATM    3  CAH   D T 601      -7.310   1.232  -6.518  1.00 40.82     0.163 A 
HETATM    4  CAK   D T 601     -10.523  -0.371  -8.068  1.00 41.85     0.098 A 
HETATM    5  CAL   D T 601     -11.723   1.914  -6.491  1.00 41.71     0.082 A 
HETATM    6  NAT   D T 601      -8.179   0.365  -7.264  1.00 40.70    -0.269 NA
HETATM    7  CBA   D T 601      -7.845   2.384  -5.715  1.00 42.63     0.088 A 
HETATM    8  CBC   D T 601     -12.592   0.993  -7.275  1.00 44.75     0.095 A 
HETATM    9  CBD   D T 601     -12.003  -0.131  -8.049  1.00 42.74     0.096 A 
HETATM   10  CBE   D T 601      -9.341   2.640  -5.688  1.00 42.11     0.086 A 
HETATM   11  CBF   D T 601      -9.611   0.556  -7.279  1.00 42.67     0.059 A 
HETATM   12  CBG   D T 601     -10.235   1.696  -6.495  1.00 42.82     0.016 A 
ENDROOT
BRANCH  10  13
HETATM   13  NAU   D T 601      -9.933   3.752  -4.926  1.00 38.25    -0.249 NA
BRANCH  13  14
HETATM   14  CBB   D T 601      -9.120   4.929  -4.684  1.00 33.72     0.072 A 
HETATM   15  CAJ   D T 601      -8.352   5.538  -5.833  1.00 33.21     0.098 A 
HETATM   16  CAX   D T 601      -7.499   6.744  -5.587  1.00 37.63     0.085 A 
HETATM   17  CAY   D T 601      -7.426   7.330  -4.202  1.00 36.54     0.059 A 
HETATM   18 CL1    D T 601      -6.457   8.720  -3.889  1.00 50.79    -0.085 Cl
HETATM   19  CAI   D T 601      -8.181   6.733  -3.065  1.00 37.60     0.079 A 
HETATM   20  CAZ   D T 601      -9.028   5.530  -3.303  1.00 38.37     0.055 A 
HETATM   21 CL2    D T 601      -9.902   4.871  -1.961  1.00 54.43    -0.085 Cl
BRANCH  16  22
HETATM   22  O02   D T 601      -6.788   7.314  -6.626  1.00 44.36    -0.331 OA
HETATM   23  C01   D T 601      -6.701   6.684  -7.865  1.00 40.82     0.181 C 
ENDBRANCH  16  22
ENDBRANCH  13  14
ENDBRANCH  10  13
BRANCH   8  24
HETATM   24  OAV   D T 601     -13.955   1.185  -7.270  1.00 49.70    -0.330 OA
HETATM   25  CAA   D T 601     -14.736   0.329  -6.499  1.00 47.61     0.181 C 
ENDBRANCH   8  24
BRANCH   9  26
HETATM   26  OAW   D T 601     -12.859  -0.971  -8.756  1.00 41.04    -0.333 OA
BRANCH  26  27
HETATM   27  CAN   D T 601     -12.439  -2.249  -9.118  1.00 40.75     0.150 C 
BRANCH  27  28
HETATM   28  CAM   D T 601     -13.581  -2.964  -9.839  1.00 48.68     0.056 C 
BRANCH  28  29
HETATM   29  CAC   D T 601     -14.725  -3.211  -8.868  1.00 51.94     0.100 C 
BRANCH  29  30
HETATM   30  NBH   D T 601     -15.305  -4.566  -9.160  1.00 61.07    -0.365 N 
HETATM   31  CAP   D T 601     -15.556  -5.582  -8.128  1.00 58.61     0.121 C 
HETATM   32  CAR   D T 601     -16.652  -6.534  -8.647  1.00 61.37     0.121 C 
HETATM   33  NBI   D T 601     -16.273  -7.105  -9.918  1.00 69.25    -0.364 N 
HETATM   34  CAO   D T 601     -17.064  -8.259 -10.329  1.00 67.03     0.121 C 
HETATM   35  CAS   D T 601     -15.909  -6.104 -10.885  1.00 66.03     0.121 C 
HETATM   36  CAQ   D T 601     -14.824  -5.216 -10.359  1.00 59.16     0.121 C 
ENDBRANCH  29  30
ENDBRANCH  28  29
ENDBRANCH  27  28
ENDBRANCH  26  27
ENDBRANCH   9  26
TORSDOF 9
