REMARK  9 active torsions:
REMARK  status: ('A' for Active; 'I' for Inactive)
REMARK    1  A    between atoms: O02_2  and  CAX_24 
REMARK    2  A    between atoms: CAC_3  and  CAM_13 
REMARK    3  A    between atoms: CAC_3  and  NBH_34 
REMARK    4  A    between atoms: CAM_13  and  CAN_14 
REMARK    5  A    between atoms: CAN_14  and  OAW_23 
REMARK    6  A    between atoms: NAU_21  and  CBB_28 
REMARK    7  A    between atoms: NAU_21  and  CBE_31 
REMARK    8  A    between atoms: OAV_22  and  CBC_29 
REMARK    9  A    between atoms: OAW_23  and  CBD_30 
ROOT
HETATM    1  NAD   D T 601       0.307  10.824   1.143  1.00 36.67    -0.191 NA
HETATM    2  CAG   D T 601       1.296  10.641   1.686  1.00 40.62     0.100 C 
HETATM    3  CAH   D T 601       2.858   9.350   3.354  1.00 40.82     0.163 A 
HETATM    4  CAK   D T 601       6.580   9.868   4.436  1.00 41.85     0.098 A 
HETATM    5  CAL   D T 601       6.229  12.144   2.475  1.00 41.71     0.082 A 
HETATM    6  NAT   D T 601       4.127   9.177   4.005  1.00 40.70    -0.269 NA
HETATM    7  CBA   D T 601       2.621  10.461   2.370  1.00 42.63     0.088 A 
HETATM    8  CBC   D T 601       7.530  11.933   3.168  1.00 44.75     0.095 A 
HETATM    9  CBD   D T 601       7.704  10.814   4.131  1.00 42.74     0.096 A 
HETATM   10  CBE   D T 601       3.748  11.426   2.052  1.00 42.11     0.086 A 
HETATM   11  CBF   D T 601       5.239  10.062   3.746  1.00 42.67     0.059 A 
HETATM   12  CBG   D T 601       5.086  11.211   2.765  1.00 42.82     0.016 A 
ENDROOT
BRANCH  10  13
HETATM   13  NAU   D T 601       3.586  12.538   1.101  1.00 38.25    -0.249 NA
BRANCH  13  14
HETATM   14  CBB   D T 601       2.256  13.086   0.906  1.00 33.72     0.072 A 
HETATM   15  CAJ   D T 601       1.412  13.409   2.116  1.00 33.21     0.098 A 
HETATM   16  CAX   D T 601       0.033  13.960   1.923  1.00 37.63     0.085 A 
HETATM   17  CAY   D T 601      -0.484  14.187   0.527  1.00 36.54     0.059 A 
HETATM   18 CL1    D T 601      -2.064  14.825   0.272  1.00 50.79    -0.085 Cl
HETATM   19  CAI   D T 601       0.344  13.870  -0.670  1.00 37.60     0.079 A 
HETATM   20  CAZ   D T 601       1.715  13.316  -0.483  1.00 38.37     0.055 A 
HETATM   21 CL2    D T 601       2.654  12.971  -1.897  1.00 54.43    -0.085 Cl
BRANCH  16  22
HETATM   22  O02   D T 601      -0.753  14.261   3.019  1.00 44.36    -0.331 OA
HETATM   23  C01   D T 601      -0.363  13.891   4.303  1.00 40.82     0.181 C 
ENDBRANCH  16  22
ENDBRANCH  13  14
ENDBRANCH  10  13
BRANCH   8  24
HETATM   24  OAV   D T 601       8.581  12.780   2.902  1.00 49.70    -0.330 OA
HETATM   25  CAA   D T 601       9.606  12.318   2.081  1.00 47.61     0.181 C 
ENDBRANCH   8  24
BRANCH   9  26
HETATM   26  OAW   D T 601       8.944  10.651   4.744  1.00 41.04    -0.333 OA
BRANCH  26  27
HETATM   27  CAN   D T 601       9.296   9.418   5.287  1.00 40.75     0.150 C 
BRANCH  27  28
HETATM   28  CAM   D T 601      10.714   9.507   5.851  1.00 48.68     0.056 C 
BRANCH  28  29
HETATM   29  CAC   D T 601      11.705   9.710   4.716  1.00 51.94     0.100 C 
BRANCH  29  30
HETATM   30  NBH   D T 601      12.936   8.903   5.017  1.00 61.07    -0.365 N 
HETATM   31  CAP   D T 601      13.568   7.994   4.050  1.00 58.61     0.121 C 
HETATM   32  CAR   D T 601      15.048   7.826   4.446  1.00 61.37     0.121 C 
HETATM   33  NBI   D T 601      15.164   7.365   5.809  1.00 69.25    -0.364 N 
HETATM   34  CAO   D T 601      16.481   6.854   6.172  1.00 67.03     0.121 C 
HETATM   35  CAS   D T 601      14.437   8.193   6.734  1.00 66.03     0.121 C 
HETATM   36  CAQ   D T 601      12.998   8.312   6.335  1.00 59.16     0.121 C 
ENDBRANCH  29  30
ENDBRANCH  28  29
ENDBRANCH  27  28
ENDBRANCH  26  27
ENDBRANCH   9  26
TORSDOF 9
