REMARK  9 active torsions:
REMARK  status: ('A' for Active; 'I' for Inactive)
REMARK    1  A    between atoms: O02_2  and  CAX_24 
REMARK    2  A    between atoms: CAC_3  and  CAM_13 
REMARK    3  A    between atoms: CAC_3  and  NBH_34 
REMARK    4  A    between atoms: CAM_13  and  CAN_14 
REMARK    5  A    between atoms: CAN_14  and  OAW_23 
REMARK    6  A    between atoms: NAU_21  and  CBB_28 
REMARK    7  A    between atoms: NAU_21  and  CBE_31 
REMARK    8  A    between atoms: OAV_22  and  CBC_29 
REMARK    9  A    between atoms: OAW_23  and  CBD_30 
ROOT
HETATM    1  NAD   D T 601       4.878   0.882  -8.557  1.00 53.32    -0.191 NA
HETATM    2  CAG   D T 601       5.733   1.583  -8.295  1.00 54.51     0.104 C 
HETATM    3  CAH   D T 601       6.777   3.923  -8.459  1.00 43.80     0.110 A 
HETATM    4  CAK   D T 601       9.680   5.753  -6.658  1.00 48.43     0.098 A 
HETATM    5  CAL   D T 601       9.992   2.959  -5.540  1.00 51.67     0.082 A 
HETATM    6  NAT   D T 601       7.683   4.942  -8.039  1.00 45.65    -0.247 NA
HETATM    7  CBA   D T 601       6.861   2.511  -7.959  1.00 49.31     0.105 A 
HETATM    8  CBC   D T 601      10.919   4.060  -5.124  1.00 53.00     0.095 A 
HETATM    9  CBD   D T 601      10.769   5.442  -5.678  1.00 51.16     0.096 A 
HETATM   10  CBE   D T 601       7.947   2.126  -6.957  1.00 54.84     0.090 A 
HETATM   11  CBF   D T 601       8.728   4.655  -7.095  1.00 47.85     0.064 A 
HETATM   12  CBG   D T 601       8.897   3.253  -6.527  1.00 51.63     0.017 A 
ENDROOT
BRANCH  10  13
HETATM   13  NAU   D T 601       8.129   0.774  -6.376  1.00 54.01    -0.248 NA
BRANCH  13  14
HETATM   14  CBB   D T 601       7.275  -0.341  -6.755  1.00 54.80     0.072 A 
HETATM   15  CAJ   D T 601       7.334  -0.814  -8.181  1.00 55.55     0.098 A 
HETATM   16  CAX   D T 601       6.467  -1.950  -8.617  1.00 62.83     0.085 A 
HETATM   17  CAY   D T 601       5.543  -2.625  -7.638  1.00 63.63     0.059 A 
HETATM   18 CL1    D T 601       4.520  -3.945  -8.091  1.00 71.73    -0.085 Cl
HETATM   19  CAI   D T 601       5.493  -2.159  -6.230  1.00 58.17     0.079 A 
HETATM   20  CAZ   D T 601       6.346  -1.026  -5.778  1.00 58.48     0.055 A 
HETATM   21 CL2    D T 601       6.209  -0.568  -4.107  1.00 88.78    -0.085 Cl
BRANCH  16  22
HETATM   22  O02   D T 601       6.544  -2.345  -9.930  1.00 70.52    -0.331 OA
HETATM   23  C01   D T 601       6.750  -1.374 -10.908  1.00 60.10     0.181 C 
ENDBRANCH  16  22
ENDBRANCH  13  14
ENDBRANCH  10  13
BRANCH   8  24
HETATM   24  OAV   D T 601      11.904   3.731  -4.226  1.00 53.06    -0.330 OA
HETATM   25  CAA   D T 601      12.204   2.382  -4.086  1.00 49.21     0.181 C 
ENDBRANCH   8  24
BRANCH   9  26
HETATM   26  OAW   D T 601      11.624   6.483  -5.296  1.00 56.28    -0.333 OA
BRANCH  26  27
HETATM   27  CAN   D T 601      11.482   7.735  -5.914  1.00 46.95     0.150 C 
BRANCH  27  28
HETATM   28  CAM   D T 601      11.846   8.824  -4.907  1.00 47.26     0.056 C 
BRANCH  28  29
HETATM   29  CAC   D T 601      12.560   8.187  -3.722  1.00 49.87     0.100 C 
BRANCH  29  30
HETATM   30  NBH   D T 601      12.989   9.263  -2.761  1.00 58.32    -0.365 N 
HETATM   31  CAP   D T 601      12.617   9.262  -1.338  1.00 59.29     0.121 C 
HETATM   32  CAR   D T 601      13.545  10.201  -0.536  1.00 66.32     0.121 C 
HETATM   33  NBI   D T 601      13.604  11.515  -1.138  1.00 67.85    -0.364 N 
HETATM   34  CAO   D T 601      14.084  12.595  -0.281  1.00 55.13     0.121 C 
HETATM   35  CAS   D T 601      13.975  11.449  -2.525  1.00 63.26     0.121 C 
HETATM   36  CAQ   D T 601      12.981  10.615  -3.278  1.00 57.65     0.121 C 
ENDBRANCH  29  30
ENDBRANCH  28  29
ENDBRANCH  27  28
ENDBRANCH  26  27
ENDBRANCH   9  26
TORSDOF 9
