REMARK  9 active torsions:
REMARK  status: ('A' for Active; 'I' for Inactive)
REMARK    1  A    between atoms: O02_2  and  CAX_24 
REMARK    2  A    between atoms: CAC_3  and  CAM_13 
REMARK    3  A    between atoms: CAC_3  and  NBH_34 
REMARK    4  A    between atoms: CAM_13  and  CAN_14 
REMARK    5  A    between atoms: CAN_14  and  OAW_23 
REMARK    6  A    between atoms: NAU_21  and  CBB_28 
REMARK    7  A    between atoms: NAU_21  and  CBE_31 
REMARK    8  A    between atoms: OAV_22  and  CBC_29 
REMARK    9  A    between atoms: OAW_23  and  CBD_30 
ROOT
HETATM    1  NAD   D T 601       0.755  10.391   1.557  1.00 53.32    -0.191 NA
HETATM    2  CAG   D T 601       1.753  10.384   2.099  1.00 54.51     0.104 C 
HETATM    3  CAH   D T 601       3.257   9.358   3.910  1.00 43.80     0.110 A 
HETATM    4  CAK   D T 601       7.024   9.592   4.790  1.00 48.43     0.098 A 
HETATM    5  CAL   D T 601       6.821  11.680   2.610  1.00 51.67     0.082 A 
HETATM    6  NAT   D T 601       4.521   9.122   4.528  1.00 45.65    -0.247 NA
HETATM    7  CBA   D T 601       3.065  10.376   2.824  1.00 49.31     0.105 A 
HETATM    8  CBC   D T 601       8.129  11.399   3.284  1.00 53.00     0.095 A 
HETATM    9  CBD   D T 601       8.231  10.369   4.364  1.00 51.16     0.096 A 
HETATM   10  CBE   D T 601       4.255  11.202   2.342  1.00 54.84     0.090 A 
HETATM   11  CBF   D T 601       5.687   9.859   4.123  1.00 47.85     0.064 A 
HETATM   12  CBG   D T 601       5.597  10.914   3.029  1.00 51.63     0.017 A 
ENDROOT
BRANCH  10  13
HETATM   13  NAU   D T 601       4.203  12.225   1.270  1.00 54.01    -0.248 NA
BRANCH  13  14
HETATM   14  CBB   D T 601       2.960  12.558   0.592  1.00 54.80     0.072 A 
HETATM   15  CAJ   D T 601       1.863  13.184   1.410  1.00 55.55     0.098 A 
HETATM   16  CAX   D T 601       0.565  13.533   0.758  1.00 62.83     0.085 A 
HETATM   17  CAY   D T 601       0.353  13.269  -0.710  1.00 63.63     0.059 A 
HETATM   18 CL1    D T 601      -1.130  13.657  -1.514  1.00 71.73    -0.085 Cl
HETATM   19  CAI   D T 601       1.440  12.658  -1.514  1.00 58.17     0.079 A 
HETATM   20  CAZ   D T 601       2.739  12.299  -0.881  1.00 58.48     0.055 A 
HETATM   21 CL2    D T 601       3.941  11.593  -1.918  1.00 88.78    -0.085 Cl
BRANCH  16  22
HETATM   22  O02   D T 601      -0.413  14.094   1.541  1.00 70.52    -0.331 OA
HETATM   23  C01   D T 601      -0.532  13.670   2.864  1.00 60.10     0.181 C 
ENDBRANCH  16  22
ENDBRANCH  13  14
ENDBRANCH  10  13
BRANCH   8  24
HETATM   24  OAV   D T 601       9.210  12.135   2.864  1.00 53.06    -0.330 OA
HETATM   25  CAA   D T 601       8.943  13.307   2.167  1.00 49.21     0.181 C 
ENDBRANCH   8  24
BRANCH   9  26
HETATM   26  OAW   D T 601       9.448  10.092   5.001  1.00 56.28    -0.333 OA
BRANCH  26  27
HETATM   27  CAN   D T 601       9.460   9.173   6.063  1.00 46.95     0.150 C 
BRANCH  27  28
HETATM   28  CAM   D T 601      10.798   8.437   6.059  1.00 47.26     0.056 C 
BRANCH  28  29
HETATM   29  CAC   D T 601      11.771   9.178   5.152  1.00 49.87     0.100 C 
BRANCH  29  30
HETATM   30  NBH   D T 601      13.115   8.500   5.203  1.00 58.32    -0.365 N 
HETATM   31  CAP   D T 601      13.818   8.023   4.002  1.00 59.29     0.121 C 
HETATM   32  CAR   D T 601      15.315   7.798   4.307  1.00 66.32     0.121 C 
HETATM   33  NBI   D T 601      15.490   6.962   5.476  1.00 67.85    -0.364 N 
HETATM   34  CAO   D T 601      16.799   6.334   5.626  1.00 55.13     0.121 C 
HETATM   35  CAS   D T 601      14.783   7.484   6.613  1.00 63.26     0.121 C 
HETATM   36  CAQ   D T 601      13.319   7.579   6.300  1.00 57.65     0.121 C 
ENDBRANCH  29  30
ENDBRANCH  28  29
ENDBRANCH  27  28
ENDBRANCH  26  27
ENDBRANCH   9  26
TORSDOF 9
