REMARK  9 active torsions:
REMARK  status: ('A' for Active; 'I' for Inactive)
REMARK    1  A    between atoms: O02_2  and  CAX_24 
REMARK    2  A    between atoms: CAC_3  and  CAM_13 
REMARK    3  A    between atoms: CAC_3  and  NBH_34 
REMARK    4  A    between atoms: CAM_13  and  CAN_14 
REMARK    5  A    between atoms: CAN_14  and  OAW_23 
REMARK    6  A    between atoms: NAU_21  and  CBB_28 
REMARK    7  A    between atoms: NAU_21  and  CBE_31 
REMARK    8  A    between atoms: OAV_22  and  CBC_29 
REMARK    9  A    between atoms: OAW_23  and  CBD_30 
ROOT
HETATM    1  NAD   D T 601      -1.742   3.877   6.749  1.00 53.32    -0.191 NA
HETATM    2  CAG   D T 601      -0.886   3.792   7.491  1.00 54.51     0.104 C 
HETATM    3  CAH   D T 601       0.213   2.526   9.436  1.00 43.80     0.110 A 
HETATM    4  CAK   D T 601       3.691   2.623  11.142  1.00 48.43     0.098 A 
HETATM    5  CAL   D T 601       3.917   4.984   9.264  1.00 51.67     0.082 A 
HETATM    6  NAT   D T 601       1.317   2.205  10.280  1.00 45.65    -0.247 NA
HETATM    7  CBA   D T 601       0.237   3.681   8.478  1.00 49.31     0.105 A 
HETATM    8  CBC   D T 601       5.053   4.608  10.164  1.00 53.00     0.095 A 
HETATM    9  CBD   D T 601       4.943   3.444  11.097  1.00 51.16     0.096 A 
HETATM   10  CBE   D T 601       1.483   4.558   8.380  1.00 54.84     0.090 A 
HETATM   11  CBF   D T 601       2.525   2.983  10.240  1.00 47.85     0.064 A 
HETATM   12  CBG   D T 601       2.650   4.174   9.301  1.00 51.63     0.017 A 
ENDROOT
BRANCH  10  13
HETATM   13  NAU   D T 601       1.640   5.715   7.467  1.00 54.01    -0.248 NA
BRANCH  13  14
HETATM   14  CBB   D T 601       0.566   6.142   6.583  1.00 54.80     0.072 A 
HETATM   15  CAJ   D T 601      -0.696   6.659   7.216  1.00 55.55     0.098 A 
HETATM   16  CAX   D T 601      -1.830   7.098   6.347  1.00 62.83     0.085 A 
HETATM   17  CAY   D T 601      -1.711   7.033   4.846  1.00 63.63     0.059 A 
HETATM   18 CL1    D T 601      -2.992   7.532   3.796  1.00 71.73    -0.085 Cl
HETATM   19  CAI   D T 601      -0.461   6.529   4.227  1.00 58.17     0.079 A 
HETATM   20  CAZ   D T 601       0.677   6.083   5.077  1.00 58.48     0.055 A 
HETATM   21 CL2    D T 601       2.093   5.515   4.244  1.00 88.78    -0.085 Cl
BRANCH  16  22
HETATM   22  O02   D T 601      -2.968   7.554   6.964  1.00 70.52    -0.331 OA
HETATM   23  C01   D T 601      -3.362   6.959   8.161  1.00 60.10     0.181 C 
ENDBRANCH  16  22
ENDBRANCH  13  14
ENDBRANCH  10  13
BRANCH   8  24
HETATM   24  OAV   D T 601       6.181   5.388  10.092  1.00 53.06    -0.330 OA
HETATM   25  CAA   D T 601       6.044   6.644   9.513  1.00 49.21     0.181 C 
ENDBRANCH   8  24
BRANCH   9  26
HETATM   26  OAW   D T 601       5.999   3.077  11.942  1.00 56.28    -0.333 OA
BRANCH  26  27
HETATM   27  CAN   D T 601       5.801   2.026  12.851  1.00 46.95     0.150 C 
BRANCH  27  28
HETATM   28  CAM   D T 601       7.126   1.290  13.044  1.00 47.26     0.056 C 
BRANCH  28  29
HETATM   29  CAC   D T 601       8.255   2.140  12.476  1.00 49.87     0.100 C 
BRANCH  29  30
HETATM   30  NBH   D T 601       9.571   1.454  12.731  1.00 58.32    -0.365 N 
HETATM   31  CAP   D T 601      10.530   1.138  11.661  1.00 59.29     0.121 C 
HETATM   32  CAR   D T 601      11.930   0.867  12.254  1.00 66.32     0.121 C 
HETATM   33  NBI   D T 601      11.867  -0.118  13.313  1.00 67.85    -0.364 N 
HETATM   34  CAO   D T 601      13.127  -0.767  13.662  1.00 55.13     0.121 C 
HETATM   35  CAS   D T 601      10.916   0.251  14.326  1.00 63.26     0.121 C 
HETATM   36  CAQ   D T 601       9.554   0.394  13.716  1.00 57.65     0.121 C 
ENDBRANCH  29  30
ENDBRANCH  28  29
ENDBRANCH  27  28
ENDBRANCH  26  27
ENDBRANCH   9  26
TORSDOF 9
