REMARK  9 active torsions:
REMARK  status: ('A' for Active; 'I' for Inactive)
REMARK    1  A    between atoms: O02_2  and  CAX_24 
REMARK    2  A    between atoms: CAC_3  and  CAM_13 
REMARK    3  A    between atoms: CAC_3  and  NBH_34 
REMARK    4  A    between atoms: CAM_13  and  CAN_14 
REMARK    5  A    between atoms: CAN_14  and  OAW_23 
REMARK    6  A    between atoms: NAU_21  and  CBB_28 
REMARK    7  A    between atoms: NAU_21  and  CBE_31 
REMARK    8  A    between atoms: OAV_22  and  CBC_29 
REMARK    9  A    between atoms: OAW_23  and  CBD_30 
ROOT
HETATM    1  NAD   D T 601      -6.124   2.288  10.639  1.00 53.32    -0.191 NA
HETATM    2  CAG   D T 601      -5.575   1.741  11.470  1.00 54.51     0.104 C 
HETATM    3  CAH   D T 601      -5.578  -0.107  13.252  1.00 43.80     0.110 A 
HETATM    4  CAK   D T 601      -2.867  -1.782  15.458  1.00 48.43     0.098 A 
HETATM    5  CAL   D T 601      -1.260   0.436  14.172  1.00 51.67     0.082 A 
HETATM    6  NAT   D T 601      -4.933  -0.988  14.170  1.00 45.65    -0.247 NA
HETATM    7  CBA   D T 601      -4.859   1.021  12.572  1.00 49.31     0.105 A 
HETATM    8  CBC   D T 601      -0.622  -0.513  15.139  1.00 53.00     0.095 A 
HETATM    9  CBD   D T 601      -1.415  -1.609  15.778  1.00 51.16     0.096 A 
HETATM   10  CBE   D T 601      -3.377   1.253  12.854  1.00 54.84     0.090 A 
HETATM   11  CBF   D T 601      -3.538  -0.833  14.481  1.00 47.85     0.064 A 
HETATM   12  CBG   D T 601      -2.719   0.280  13.843  1.00 51.63     0.017 A 
ENDROOT
BRANCH  10  13
HETATM   13  NAU   D T 601      -2.550   2.319  12.239  1.00 54.01    -0.248 NA
BRANCH  13  14
HETATM   14  CBB   D T 601      -3.116   3.284  11.309  1.00 54.80     0.072 A 
HETATM   15  CAJ   D T 601      -4.161   4.230  11.833  1.00 55.55     0.098 A 
HETATM   16  CAX   D T 601      -4.778   5.231  10.910  1.00 62.83     0.085 A 
HETATM   17  CAY   D T 601      -4.355   5.301   9.467  1.00 63.63     0.059 A 
HETATM   18 CL1    D T 601      -5.035   6.443   8.359  1.00 71.73    -0.085 Cl
HETATM   19  CAI   D T 601      -3.318   4.370   8.956  1.00 58.17     0.079 A 
HETATM   20  CAZ   D T 601      -2.696   3.363   9.859  1.00 58.48     0.055 A 
HETATM   21 CL2    D T 601      -1.491   2.327   9.154  1.00 88.78    -0.085 Cl
BRANCH  16  22
HETATM   22  O02   D T 601      -5.735   6.070  11.426  1.00 70.52    -0.331 OA
HETATM   23  C01   D T 601      -6.603   5.574  12.396  1.00 60.10     0.181 C 
ENDBRANCH  16  22
ENDBRANCH  13  14
ENDBRANCH  10  13
BRANCH   8  24
HETATM   24  OAV   D T 601       0.711  -0.317  15.406  1.00 53.06    -0.330 OA
HETATM   25  CAA   D T 601       1.242   0.927  15.089  1.00 49.21     0.181 C 
ENDBRANCH   8  24
BRANCH   9  26
HETATM   26  OAW   D T 601      -0.831  -2.507  16.681  1.00 56.28    -0.333 OA
BRANCH  26  27
HETATM   27  CAN   D T 601      -1.648  -3.460  17.309  1.00 46.95     0.150 C 
BRANCH  27  28
HETATM   28  CAM   D T 601      -0.830  -4.728  17.546  1.00 47.26     0.056 C 
BRANCH  28  29
HETATM   29  CAC   D T 601       0.647  -4.411  17.350  1.00 49.87     0.100 C 
BRANCH  29  30
HETATM   30  NBH   D T 601       1.465  -5.638  17.655  1.00 58.32    -0.365 N 
HETATM   31  CAP   D T 601       2.425  -6.218  16.704  1.00 59.29     0.121 C 
HETATM   32  CAR   D T 601       3.410  -7.155  17.437  1.00 66.32     0.121 C 
HETATM   33  NBI   D T 601       2.704  -8.128  18.243  1.00 67.85    -0.364 N 
HETATM   34  CAO   D T 601       3.465  -9.309  18.639  1.00 55.13     0.121 C 
HETATM   35  CAS   D T 601       1.785  -7.498  19.152  1.00 63.26     0.121 C 
HETATM   36  CAQ   D T 601       0.785  -6.688  18.382  1.00 57.65     0.121 C 
ENDBRANCH  29  30
ENDBRANCH  28  29
ENDBRANCH  27  28
ENDBRANCH  26  27
ENDBRANCH   9  26
TORSDOF 9
