REMARK  5 active torsions:
REMARK  status: ('A' for Active; 'I' for Inactive)
REMARK       I    between atoms: NBM_14  and  CAY_34 
REMARK    1  A    between atoms: NBM_14  and  CBL_43 
REMARK    2  A    between atoms: NBN_24  and  CBK_31 
REMARK    3  A    between atoms: CBQ_25  and  NBO_42 
REMARK    4  A    between atoms: CBP_26  and  OAV_27 
REMARK    5  A    between atoms: CAY_34  and  CAZ_36 
ROOT
HETATM    1  CBQ   D T 501      12.542   2.288  -4.714  1.00 56.13     0.192 C 
HETATM    2  CBP   D T 501      11.313   2.885  -3.958  1.00 58.89     0.181 C 
HETATM    3  CAC   D T 501      13.522   1.764  -3.659  1.00 54.70     0.057 C 
HETATM    4  OAW   D T 501      13.259   3.333  -5.397  1.00 56.41    -0.319 OA
HETATM    5  CBK   D T 501      12.522   4.442  -5.965  1.00 58.59     0.208 C 
HETATM    6  CAT   D T 501      11.490   5.064  -5.002  1.00 60.77     0.079 C 
HETATM    7  CBL   D T 501      11.619   4.344  -3.673  1.00 62.40     0.120 C 
ENDROOT
BRANCH   7   8
HETATM    8  NBM   D T 501      10.755   4.988  -2.658  1.00 69.47    -0.314 N 
HETATM    9  CAB   D T 501       9.282   4.921  -2.785  1.00 69.73     0.129 C 
HETATM   10  CAY   D T 501      11.325   5.716  -1.649  1.00 78.65     0.257 C 
HETATM   11  OAE   D T 501      12.543   5.832  -1.517  1.00 84.78    -0.267 OA
BRANCH  10  12
HETATM   12  CAZ   D T 501      10.506   6.391  -0.739  1.00 83.94     0.056 A 
HETATM   13  CAM   D T 501      10.349   5.919   0.565  1.00 85.65     0.005 A 
HETATM   14  CAG   D T 501       9.544   6.619   1.465  1.00 86.83     0.000 A 
HETATM   15  CAF   D T 501       8.905   7.799   1.073  1.00 87.55     0.000 A 
HETATM   16  CAH   D T 501       9.069   8.282  -0.226  1.00 86.87     0.000 A 
HETATM   17  CAN   D T 501       9.877   7.583  -1.124  1.00 86.77     0.005 A 
ENDBRANCH  10  12
ENDBRANCH   7   8
BRANCH   2  18
HETATM   18  OAV   D T 501      10.146   2.795  -4.801  1.00 58.49    -0.348 OA
HETATM   19  CAA   D T 501       9.351   1.618  -4.609  1.00 58.91     0.174 C 
ENDBRANCH   2  18
BRANCH   1  20
HETATM   20  NBO   D T 501      12.108   1.266  -5.773  1.00 52.97    -0.306 N 
HETATM   21  CBJ   D T 501      11.767   1.578  -7.041  1.00 52.84     0.078 A 
HETATM   22  CBI   D T 501      11.728   2.749  -7.702  1.00 54.34     0.078 A 
HETATM   23  CBG   D T 501      11.428   0.465  -7.684  1.00 49.70     0.020 A 
HETATM   24  CBH   D T 501      11.354   2.813  -8.991  1.00 53.24     0.023 A 
HETATM   25  NBN   D T 501      12.012   3.985  -7.283  1.00 56.00    -0.304 N 
HETATM   26  CBB   D T 501      11.006   1.680  -9.634  1.00 51.65     0.061 A 
HETATM   27  CBC   D T 501      11.425   4.108  -9.362  1.00 55.43     0.018 A 
HETATM   28  CAX   D T 501      10.599   1.412 -10.897  1.00 52.61     0.279 A 
HETATM   29  CBA   D T 501      11.048   0.512  -8.963  1.00 50.39     0.025 A 
HETATM   30  OAD   D T 501      10.489   2.227 -11.813  1.00 50.87    -0.265 OA
HETATM   31  NAU   D T 501      10.365   0.118 -11.088  1.00 51.23    -0.206 NA
HETATM   32  CAS   D T 501      10.638  -0.527  -9.815  1.00 50.53     0.102 A 
HETATM   33  CAO   D T 501      11.169   4.740 -10.524  1.00 55.71     0.002 A 
HETATM   34  CBE   D T 501      11.845   4.825  -8.299  1.00 56.05     0.062 A 
HETATM   35  CAI   D T 501      11.327   6.120 -10.648  1.00 56.13     0.000 A 
HETATM   36  CAK   D T 501      11.759   6.847  -9.544  1.00 56.08     0.002 A 
HETATM   37  CAQ   D T 501      12.014   6.159  -8.362  1.00 55.62     0.017 A 
HETATM   38  CBD   D T 501      11.532  -0.550  -6.827  1.00 49.53     0.017 A 
HETATM   39  CAP   D T 501      11.296  -1.863  -6.993  1.00 47.22     0.002 A 
HETATM   40  CBF   D T 501      11.949  -0.059  -5.643  1.00 49.98     0.062 A 
HETATM   41  CAJ   D T 501      11.465  -2.756  -5.948  1.00 47.45     0.000 A 
HETATM   42  CAL   D T 501      11.893  -2.258  -4.726  1.00 48.41     0.002 A 
HETATM   43  CAR   D T 501      12.133  -0.891  -4.607  1.00 49.30     0.017 A 
ENDBRANCH   1  20
TORSDOF 5
