REMARK  5 active torsions:
REMARK  status: ('A' for Active; 'I' for Inactive)
REMARK       I    between atoms: NBM_14  and  CAY_34 
REMARK    1  A    between atoms: NBM_14  and  CBL_43 
REMARK    2  A    between atoms: NBN_24  and  CBK_31 
REMARK    3  A    between atoms: CBQ_25  and  NBO_42 
REMARK    4  A    between atoms: CBP_26  and  OAV_27 
REMARK    5  A    between atoms: CAY_34  and  CAZ_36 
ROOT
HETATM    1  CBQ   D T 501       0.186   4.770  12.444  1.00 56.13     0.192 C 
HETATM    2  CBP   D T 501       1.160   4.013  11.487  1.00 58.89     0.181 C 
HETATM    3  CAC   D T 501       0.612   6.241  12.466  1.00 54.70     0.057 C 
HETATM    4  OAW   D T 501       0.367   4.312  13.797  1.00 56.41    -0.319 OA
HETATM    5  CBK   D T 501       0.692   2.922  14.036  1.00 58.59     0.208 C 
HETATM    6  CAT   D T 501       1.835   2.387  13.150  1.00 60.77     0.079 C 
HETATM    7  CBL   D T 501       2.343   3.548  12.315  1.00 62.40     0.120 C 
ENDROOT
BRANCH   7   8
HETATM    8  NBM   D T 501       3.538   3.137  11.544  1.00 69.47    -0.314 N 
HETATM    9  CAB   D T 501       3.414   2.142  10.456  1.00 69.73     0.129 C 
HETATM   10  CAY   D T 501       4.769   3.619  11.896  1.00 78.65     0.257 C 
HETATM   11  OAE   D T 501       4.931   4.422  12.815  1.00 84.78    -0.267 OA
BRANCH  10  12
HETATM   12  CAZ   D T 501       5.906   3.167  11.220  1.00 83.94     0.056 A 
HETATM   13  CAM   D T 501       6.563   3.989  10.303  1.00 85.65     0.005 A 
HETATM   14  CAG   D T 501       7.709   3.528   9.653  1.00 86.83     0.000 A 
HETATM   15  CAF   D T 501       8.211   2.251   9.926  1.00 87.55     0.000 A 
HETATM   16  CAH   D T 501       7.565   1.431  10.850  1.00 86.87     0.000 A 
HETATM   17  CAN   D T 501       6.421   1.894  11.503  1.00 86.77     0.005 A 
ENDBRANCH  10  12
ENDBRANCH   7   8
BRANCH   2  18
HETATM   18  OAV   D T 501       0.484   2.868  10.928  1.00 58.49    -0.348 OA
HETATM   19  CAA   D T 501      -0.150   3.098   9.663  1.00 58.91     0.174 C 
ENDBRANCH   2  18
BRANCH   1  20
HETATM   20  NBO   D T 501      -1.280   4.515  12.070  1.00 52.97    -0.306 N 
HETATM   21  CBJ   D T 501      -2.013   3.473  12.516  1.00 52.84     0.078 A 
HETATM   22  CBI   D T 501      -1.723   2.460  13.353  1.00 54.34     0.078 A 
HETATM   23  CBG   D T 501      -3.231   3.543  11.989  1.00 49.70     0.020 A 
HETATM   24  CBH   D T 501      -2.636   1.523  13.660  1.00 53.24     0.023 A 
HETATM   25  NBN   D T 501      -0.590   2.171  13.996  1.00 56.00    -0.304 N 
HETATM   26  CBB   D T 501      -3.868   1.599  13.116  1.00 51.65     0.061 A 
HETATM   27  CBC   D T 501      -2.049   0.661  14.515  1.00 55.43     0.018 A 
HETATM   28  CAX   D T 501      -4.983   0.839  13.223  1.00 52.61     0.279 A 
HETATM   29  CBA   D T 501      -4.148   2.617  12.279  1.00 50.39     0.025 A 
HETATM   30  OAD   D T 501      -5.119  -0.153  13.940  1.00 50.87    -0.265 OA
HETATM   31  NAU   D T 501      -5.986   1.308  12.490  1.00 51.23    -0.206 NA
HETATM   32  CAS   D T 501      -5.471   2.492  11.825  1.00 50.53     0.102 A 
HETATM   33  CAO   D T 501      -2.490  -0.450  15.138  1.00 55.71     0.002 A 
HETATM   34  CBE   D T 501      -0.783   1.078  14.726  1.00 56.05     0.062 A 
HETATM   35  CAI   D T 501      -1.663  -1.177  15.993  1.00 56.13     0.000 A 
HETATM   36  CAK   D T 501      -0.360  -0.736  16.201  1.00 56.08     0.002 A 
HETATM   37  CAQ   D T 501       0.058   0.415  15.541  1.00 55.62     0.017 A 
HETATM   38  CBD   D T 501      -3.271   4.611  11.193  1.00 49.53     0.017 A 
HETATM   39  CAP   D T 501      -4.269   5.102  10.438  1.00 47.22     0.002 A 
HETATM   40  CBF   D T 501      -2.066   5.214  11.238  1.00 49.98     0.062 A 
HETATM   41  CAJ   D T 501      -4.088   6.242   9.671  1.00 47.45     0.000 A 
HETATM   42  CAL   D T 501      -2.851   6.866   9.710  1.00 48.41     0.002 A 
HETATM   43  CAR   D T 501      -1.852   6.324  10.517  1.00 49.30     0.017 A 
ENDBRANCH   1  20
TORSDOF 5
