REMARK  5 active torsions:
REMARK  status: ('A' for Active; 'I' for Inactive)
REMARK       I    between atoms: NBM_14  and  CAY_34 
REMARK    1  A    between atoms: NBM_14  and  CBL_43 
REMARK    2  A    between atoms: NBN_24  and  CBK_31 
REMARK    3  A    between atoms: CBQ_25  and  NBO_42 
REMARK    4  A    between atoms: CBP_26  and  OAV_27 
REMARK    5  A    between atoms: CAY_34  and  CAZ_36 
ROOT
HETATM    1  CBQ   D T 501      42.135  28.118 -13.527  1.00 50.59     0.192 C 
HETATM    2  CBP   D T 501      43.061  27.360 -12.544  1.00 51.47     0.181 C 
HETATM    3  CAC   D T 501      42.646  27.887 -14.951  1.00 49.86     0.057 C 
HETATM    4  OAW   D T 501      42.220  29.533 -13.342  1.00 50.94    -0.319 OA
HETATM    5  CBK   D T 501      42.484  30.059 -12.032  1.00 51.68     0.208 C 
HETATM    6  CAT   D T 501      43.650  29.391 -11.332  1.00 52.45     0.079 C 
HETATM    7  CBL   D T 501      44.195  28.295 -12.237  1.00 53.19     0.120 C 
ENDROOT
BRANCH   7   8
HETATM    8  NBM   D T 501      45.348  27.683 -11.560  1.00 56.59    -0.314 N 
HETATM    9  CAB   D T 501      45.134  26.788 -10.400  1.00 55.78     0.129 C 
HETATM   10  CAY   D T 501      46.602  28.016 -11.977  1.00 60.97     0.257 C 
HETATM   11  OAE   D T 501      46.805  28.790 -12.919  1.00 63.13    -0.267 OA
BRANCH  10  12
HETATM   12  CAZ   D T 501      47.705  27.563 -11.260  1.00 63.15     0.056 A 
HETATM   13  CAM   D T 501      48.594  26.644 -11.805  1.00 63.31     0.005 A 
HETATM   14  CAG   D T 501      49.708  26.251 -11.064  1.00 63.55     0.000 A 
HETATM   15  CAF   D T 501      49.938  26.779  -9.791  1.00 64.46     0.000 A 
HETATM   16  CAH   D T 501      49.056  27.713  -9.249  1.00 64.03     0.000 A 
HETATM   17  CAN   D T 501      47.949  28.114  -9.993  1.00 64.07     0.005 A 
ENDBRANCH  10  12
ENDBRANCH   7   8
BRANCH   2  18
HETATM   18  OAV   D T 501      42.340  27.037 -11.323  1.00 51.71    -0.348 OA
HETATM   19  CAA   D T 501      41.797  25.722 -11.244  1.00 53.01     0.174 C 
ENDBRANCH   2  18
BRANCH   1  20
HETATM   20  NBO   D T 501      40.702  27.733 -13.285  1.00 51.03    -0.306 N 
HETATM   21  CBJ   D T 501      39.889  28.332 -12.391  1.00 50.94     0.078 A 
HETATM   22  CBI   D T 501      40.078  29.371 -11.549  1.00 51.53     0.078 A 
HETATM   23  CBG   D T 501      38.702  27.729 -12.430  1.00 50.22     0.020 A 
HETATM   24  CBH   D T 501      39.091  29.812 -10.731  1.00 51.25     0.023 A 
HETATM   25  NBN   D T 501      41.172  30.106 -11.337  1.00 50.08    -0.304 N 
HETATM   26  CBB   D T 501      37.874  29.195 -10.763  1.00 50.95     0.061 A 
HETATM   27  CBC   D T 501      39.612  30.843 -10.032  1.00 50.16     0.018 A 
HETATM   28  CAX   D T 501      36.692  29.374 -10.103  1.00 50.99     0.279 A 
HETATM   29  CBA   D T 501      37.707  28.156 -11.621  1.00 49.90     0.025 A 
HETATM   30  OAD   D T 501      36.429  30.237  -9.263  1.00 50.93    -0.265 OA
HETATM   31  NAU   D T 501      35.761  28.526 -10.494  1.00 48.81    -0.206 NA
HETATM   32  CAS   D T 501      36.400  27.676 -11.490  1.00 49.83     0.102 A 
HETATM   33  CAO   D T 501      39.107  31.656  -9.095  1.00 50.61     0.002 A 
HETATM   34  CBE   D T 501      40.893  31.027 -10.421  1.00 50.79     0.062 A 
HETATM   35  CAI   D T 501      39.874  32.676  -8.515  1.00 49.90     0.000 A 
HETATM   36  CAK   D T 501      41.184  32.850  -8.917  1.00 49.08     0.002 A 
HETATM   37  CAQ   D T 501      41.675  31.995  -9.893  1.00 49.54     0.017 A 
HETATM   38  CBD   D T 501      38.789  26.735 -13.335  1.00 49.67     0.017 A 
HETATM   39  CAP   D T 501      37.888  25.832 -13.743  1.00 49.34     0.002 A 
HETATM   40  CBF   D T 501      40.023  26.735 -13.861  1.00 49.59     0.062 A 
HETATM   41  CAJ   D T 501      38.198  24.865 -14.691  1.00 48.60     0.000 A 
HETATM   42  CAL   D T 501      39.473  24.867 -15.224  1.00 49.77     0.002 A 
HETATM   43  CAR   D T 501      40.369  25.835 -14.794  1.00 48.78     0.017 A 
ENDBRANCH   1  20
TORSDOF 5
