REMARK  5 active torsions:
REMARK  status: ('A' for Active; 'I' for Inactive)
REMARK       I    between atoms: NBM_14  and  CAY_34 
REMARK    1  A    between atoms: NBM_14  and  CBL_43 
REMARK    2  A    between atoms: NBN_24  and  CBK_31 
REMARK    3  A    between atoms: CBQ_25  and  NBO_42 
REMARK    4  A    between atoms: CBP_26  and  OAV_27 
REMARK    5  A    between atoms: CAY_34  and  CAZ_36 
ROOT
HETATM    1  CBQ   D T 501       0.665   2.576  13.716  1.00 56.13     0.192 C 
HETATM    2  CBP   D T 501       1.439   1.842  12.575  1.00 58.89     0.181 C 
HETATM    3  CAC   D T 501       1.433   3.862  14.039  1.00 54.70     0.057 C 
HETATM    4  OAW   D T 501       0.717   1.800  14.928  1.00 56.41    -0.319 OA
HETATM    5  CBK   D T 501       0.695   0.355  14.845  1.00 58.59     0.208 C 
HETATM    6  CAT   D T 501       1.684  -0.225  13.814  1.00 60.77     0.079 C 
HETATM    7  CBL   D T 501       2.466   0.937  13.230  1.00 62.40     0.120 C 
ENDROOT
BRANCH   7   8
HETATM    8  NBM   D T 501       3.534   0.436  12.337  1.00 69.47    -0.314 N 
HETATM    9  CAB   D T 501       3.186  -0.235  11.065  1.00 69.73     0.129 C 
HETATM   10  CAY   D T 501       4.842   0.522  12.731  1.00 78.65     0.257 C 
HETATM   11  OAE   D T 501       5.183   1.040  13.795  1.00 84.78    -0.267 OA
BRANCH  10  12
HETATM   12  CAZ   D T 501       5.843  -0.024  11.924  1.00 83.94     0.056 A 
HETATM   13  CAM   D T 501       6.688   0.800  11.180  1.00 85.65     0.005 A 
HETATM   14  CAG   D T 501       7.696   0.236  10.396  1.00 86.83     0.000 A 
HETATM   15  CAF   D T 501       7.873  -1.151  10.363  1.00 87.55     0.000 A 
HETATM   16  CAH   D T 501       7.039  -1.979  11.114  1.00 86.87     0.000 A 
HETATM   17  CAN   D T 501       6.034  -1.413  11.901  1.00 86.77     0.005 A 
ENDBRANCH  10  12
ENDBRANCH   7   8
BRANCH   2  18
HETATM   18  OAV   D T 501       0.512   1.042  11.810  1.00 58.49    -0.348 OA
HETATM   19  CAA   D T 501      -0.034   1.690  10.655  1.00 58.91     0.174 C 
ENDBRANCH   2  18
BRANCH   1  20
HETATM   20  NBO   D T 501      -0.815   2.766  13.359  1.00 52.97    -0.306 N 
HETATM   21  CBJ   D T 501      -1.782   1.854  13.600  1.00 52.84     0.078 A 
HETATM   22  CBI   D T 501      -1.753   0.642  14.183  1.00 54.34     0.078 A 
HETATM   23  CBG   D T 501      -2.942   2.326  13.154  1.00 49.70     0.020 A 
HETATM   24  CBH   D T 501      -2.868  -0.095  14.319  1.00 53.24     0.023 A 
HETATM   25  NBN   D T 501      -0.729  -0.042  14.698  1.00 56.00    -0.304 N 
HETATM   26  CBB   D T 501      -4.040   0.389  13.858  1.00 51.65     0.061 A 
HETATM   27  CBC   D T 501      -2.514  -1.239  14.939  1.00 55.43     0.018 A 
HETATM   28  CAX   D T 501      -5.305  -0.090  13.846  1.00 52.61     0.279 A 
HETATM   29  CBA   D T 501      -4.058   1.604  13.276  1.00 50.39     0.025 A 
HETATM   30  OAD   D T 501      -5.684  -1.154  14.336  1.00 50.87    -0.265 OA
HETATM   31  NAU   D T 501      -6.159   0.754  13.277  1.00 51.23    -0.206 NA
HETATM   32  CAS   D T 501      -5.367   1.900  12.864  1.00 50.53     0.102 A 
HETATM   33  CAO   D T 501      -3.216  -2.323  15.325  1.00 55.71     0.002 A 
HETATM   34  CBE   D T 501      -1.188  -1.192  15.181  1.00 56.05     0.062 A 
HETATM   35  CAI   D T 501      -2.597  -3.396  15.965  1.00 56.13     0.000 A 
HETATM   36  CAK   D T 501      -1.229  -3.335  16.206  1.00 56.08     0.002 A 
HETATM   37  CAQ   D T 501      -0.539  -2.199  15.795  1.00 55.62     0.017 A 
HETATM   38  CBD   D T 501      -2.715   3.523  12.613  1.00 49.53     0.017 A 
HETATM   39  CAP   D T 501      -3.557   4.391  12.027  1.00 47.22     0.002 A 
HETATM   40  CBF   D T 501      -1.401   3.797  12.734  1.00 49.98     0.062 A 
HETATM   41  CAJ   D T 501      -3.100   5.596  11.518  1.00 47.45     0.000 A 
HETATM   42  CAL   D T 501      -1.749   5.885  11.638  1.00 48.41     0.002 A 
HETATM   43  CAR   D T 501      -0.919   4.956  12.263  1.00 49.30     0.017 A 
ENDBRANCH   1  20
TORSDOF 5
