REMARK  5 active torsions:
REMARK  status: ('A' for Active; 'I' for Inactive)
REMARK       I    between atoms: NBM_14  and  CAY_34 
REMARK    1  A    between atoms: NBM_14  and  CBL_43 
REMARK    2  A    between atoms: NBN_24  and  CBK_31 
REMARK    3  A    between atoms: CBQ_25  and  NBO_42 
REMARK    4  A    between atoms: CBP_26  and  OAV_27 
REMARK    5  A    between atoms: CAY_34  and  CAZ_36 
ROOT
HETATM    1  CBQ   D T 501      -2.553  -0.496 -12.220  1.00 56.13     0.192 C 
HETATM    2  CBP   D T 501      -3.518  -0.288 -11.011  1.00 58.89     0.181 C 
HETATM    3  CAC   D T 501      -2.163   0.891 -12.742  1.00 54.70     0.057 C 
HETATM    4  OAW   D T 501      -3.255  -1.118 -13.313  1.00 56.41    -0.319 OA
HETATM    5  CBK   D T 501      -4.287  -2.092 -13.027  1.00 58.59     0.208 C 
HETATM    6  CAT   D T 501      -5.295  -1.636 -11.954  1.00 60.77     0.079 C 
HETATM    7  CBL   D T 501      -4.930  -0.216 -11.562  1.00 62.40     0.120 C 
ENDROOT
BRANCH   7   8
HETATM    8  NBM   D T 501      -5.946   0.336 -10.638  1.00 69.47    -0.314 N 
HETATM    9  CAB   D T 501      -6.093  -0.222  -9.275  1.00 69.73     0.129 C 
HETATM   10  CAY   D T 501      -6.805   1.306 -11.079  1.00 78.65     0.257 C 
HETATM   11  OAE   D T 501      -6.748   1.780 -12.214  1.00 84.78    -0.267 OA
BRANCH  10  12
HETATM   12  CAZ   D T 501      -7.816   1.768 -10.232  1.00 83.94     0.056 A 
HETATM   13  CAM   D T 501      -7.727   3.026  -9.636  1.00 85.65     0.005 A 
HETATM   14  CAG   D T 501      -8.758   3.479  -8.810  1.00 86.83     0.000 A 
HETATM   15  CAF   D T 501      -9.886   2.684  -8.587  1.00 87.55     0.000 A 
HETATM   16  CAH   D T 501      -9.986   1.430  -9.191  1.00 86.87     0.000 A 
HETATM   17  CAN   D T 501      -8.956   0.980 -10.020  1.00 86.77     0.005 A 
ENDBRANCH  10  12
ENDBRANCH   7   8
BRANCH   2  18
HETATM   18  OAV   D T 501      -3.408  -1.414 -10.115  1.00 58.49    -0.348 OA
HETATM   19  CAA   D T 501      -2.468  -1.246  -9.047  1.00 58.91     0.174 C 
ENDBRANCH   2  18
BRANCH   1  20
HETATM   20  NBO   D T 501      -1.379  -1.413 -11.851  1.00 52.97    -0.306 N 
HETATM   21  CBJ   D T 501      -1.407  -2.760 -11.934  1.00 52.84     0.078 A 
HETATM   22  CBI   D T 501      -2.359  -3.619 -12.342  1.00 54.34     0.078 A 
HETATM   23  CBG   D T 501      -0.238  -3.243 -11.525  1.00 49.70     0.020 A 
HETATM   24  CBH   D T 501      -2.151  -4.946 -12.341  1.00 53.24     0.023 A 
HETATM   25  NBN   D T 501      -3.596  -3.386 -12.785  1.00 56.00    -0.304 N 
HETATM   26  CBB   D T 501      -0.964  -5.428 -11.919  1.00 51.65     0.061 A 
HETATM   27  CBC   D T 501      -3.277  -5.525 -12.805  1.00 55.43     0.018 A 
HETATM   28  CAX   D T 501      -0.452  -6.675 -11.803  1.00 52.61     0.279 A 
HETATM   29  CBA   D T 501      -0.017  -4.559 -11.512  1.00 50.39     0.025 A 
HETATM   30  OAD   D T 501      -1.012  -7.723 -12.128  1.00 50.87    -0.265 OA
HETATM   31  NAU   D T 501       0.791  -6.669 -11.333  1.00 51.23    -0.206 NA
HETATM   32  CAS   D T 501       1.123  -5.273 -11.108  1.00 50.53     0.102 A 
HETATM   33  CAO   D T 501      -3.623  -6.811 -13.014  1.00 55.71     0.002 A 
HETATM   34  CBE   D T 501      -4.164  -4.549 -13.089  1.00 56.05     0.062 A 
HETATM   35  CAI   D T 501      -4.879  -7.150 -13.515  1.00 56.13     0.000 A 
HETATM   36  CAK   D T 501      -5.784  -6.133 -13.802  1.00 56.08     0.002 A 
HETATM   37  CAQ   D T 501      -5.390  -4.819 -13.574  1.00 55.62     0.017 A 
HETATM   38  CBD   D T 501       0.525  -2.212 -11.163  1.00 49.53     0.017 A 
HETATM   39  CAP   D T 501       1.780  -2.180 -10.681  1.00 47.22     0.002 A 
HETATM   40  CBF   D T 501      -0.177  -1.079 -11.360  1.00 49.98     0.062 A 
HETATM   41  CAJ   D T 501       2.390  -0.978 -10.360  1.00 47.45     0.000 A 
HETATM   42  CAL   D T 501       1.673   0.192 -10.558  1.00 48.41     0.002 A 
HETATM   43  CAR   D T 501       0.380   0.106 -11.070  1.00 49.30     0.017 A 
ENDBRANCH   1  20
TORSDOF 5
