REMARK  5 active torsions:
REMARK  status: ('A' for Active; 'I' for Inactive)
REMARK       I    between atoms: NBM_14  and  CAY_34 
REMARK    1  A    between atoms: NBM_14  and  CBL_43 
REMARK    2  A    between atoms: NBN_24  and  CBK_31 
REMARK    3  A    between atoms: CBQ_25  and  NBO_42 
REMARK    4  A    between atoms: CBP_26  and  OAV_27 
REMARK    5  A    between atoms: CAY_34  and  CAZ_36 
ROOT
HETATM    1  CBQ   D T 501      -0.482  -1.216  11.615  1.00 56.13     0.192 C 
HETATM    2  CBP   D T 501       0.502  -1.669  10.490  1.00 58.89     0.181 C 
HETATM    3  CAC   D T 501       0.168  -0.039  12.350  1.00 54.70     0.057 C 
HETATM    4  OAW   D T 501      -0.605  -2.250  12.610  1.00 56.41    -0.319 OA
HETATM    5  CBK   D T 501      -0.555  -3.637  12.199  1.00 58.59     0.208 C 
HETATM    6  CAT   D T 501       0.616  -3.965  11.252  1.00 60.77     0.079 C 
HETATM    7  CBL   D T 501       1.438  -2.700  11.092  1.00 62.40     0.120 C 
ENDROOT
BRANCH   7   8
HETATM    8  NBM   D T 501       2.662  -2.983  10.309  1.00 69.47    -0.314 N 
HETATM    9  CAB   D T 501       2.561  -3.343   8.877  1.00 69.73     0.129 C 
HETATM   10  CAY   D T 501       3.879  -2.990  10.934  1.00 78.65     0.257 C 
HETATM   11  OAE   D T 501       4.015  -2.731  12.130  1.00 84.78    -0.267 OA
BRANCH  10  12
HETATM   12  CAZ   D T 501       5.024  -3.337  10.211  1.00 83.94     0.056 A 
HETATM   13  CAM   D T 501       5.949  -2.364   9.832  1.00 85.65     0.005 A 
HETATM   14  CAG   D T 501       7.098  -2.733   9.128  1.00 86.83     0.000 A 
HETATM   15  CAF   D T 501       7.332  -4.075   8.813  1.00 87.55     0.000 A 
HETATM   16  CAH   D T 501       6.416  -5.053   9.200  1.00 86.87     0.000 A 
HETATM   17  CAN   D T 501       5.270  -4.683   9.907  1.00 86.77     0.005 A 
ENDBRANCH  10  12
ENDBRANCH   7   8
BRANCH   2  18
HETATM   18  OAV   D T 501      -0.249  -2.271   9.415  1.00 58.49    -0.348 OA
HETATM   19  CAA   D T 501      -0.617  -1.375   8.360  1.00 58.91     0.174 C 
ENDBRANCH   2  18
BRANCH   1  20
HETATM   20  NBO   D T 501      -1.887  -0.949  11.059  1.00 52.97    -0.306 N 
HETATM   21  CBJ   D T 501      -2.843  -1.891  10.915  1.00 52.84     0.078 A 
HETATM   22  CBI   D T 501      -2.865  -3.205  11.204  1.00 54.34     0.078 A 
HETATM   23  CBG   D T 501      -3.929  -1.329  10.392  1.00 49.70     0.020 A 
HETATM   24  CBH   D T 501      -3.958  -3.953  10.973  1.00 53.24     0.023 A 
HETATM   25  NBN   D T 501      -1.918  -3.990  11.721  1.00 56.00    -0.304 N 
HETATM   26  CBB   D T 501      -5.052  -3.376  10.437  1.00 51.65     0.061 A 
HETATM   27  CBC   D T 501      -3.669  -5.210  11.370  1.00 55.43     0.018 A 
HETATM   28  CAX   D T 501      -6.278  -3.839  10.096  1.00 52.61     0.279 A 
HETATM   29  CBA   D T 501      -5.020  -2.060  10.151  1.00 50.39     0.025 A 
HETATM   30  OAD   D T 501      -6.691  -4.987  10.259  1.00 50.87    -0.265 OA
HETATM   31  NAU   D T 501      -7.055  -2.886   9.594  1.00 51.23    -0.206 NA
HETATM   32  CAS   D T 501      -6.251  -1.676   9.595  1.00 50.53     0.102 A 
HETATM   33  CAO   D T 501      -4.382  -6.353  11.371  1.00 55.71     0.002 A 
HETATM   34  CBE   D T 501      -2.405  -5.220  11.843  1.00 56.05     0.062 A 
HETATM   35  CAI   D T 501      -3.839  -7.545  11.849  1.00 56.13     0.000 A 
HETATM   36  CAK   D T 501      -2.535  -7.541  12.333  1.00 56.08     0.002 A 
HETATM   37  CAQ   D T 501      -1.831  -6.341  12.316  1.00 55.62     0.017 A 
HETATM   38  CBD   D T 501      -3.661  -0.040  10.184  1.00 49.53     0.017 A 
HETATM   39  CAP   D T 501      -4.425   0.940   9.672  1.00 47.22     0.002 A 
HETATM   40  CBF   D T 501      -2.399   0.198  10.591  1.00 49.98     0.062 A 
HETATM   41  CAJ   D T 501      -3.937   2.229   9.538  1.00 47.45     0.000 A 
HETATM   42  CAL   D T 501      -2.638   2.482   9.954  1.00 48.41     0.002 A 
HETATM   43  CAR   D T 501      -1.890   1.435  10.486  1.00 49.30     0.017 A 
ENDBRANCH   1  20
TORSDOF 5
