REMARK  2 active torsions:
REMARK  status: ('A' for Active; 'I' for Inactive)
REMARK    1  A    between atoms: C5_4  and  O7_13 
REMARK    2  A    between atoms: C8_10  and  O7_13 
ROOT
HETATM    1  O7    D T 302       7.869   1.901  -5.795  1.00 10.35    -0.304 OA
ENDROOT
BRANCH   1   2
HETATM    2  C5    D T 302       7.824   1.855  -7.193  1.00 11.31     0.125 A 
HETATM    3  C6    D T 302       7.557   0.640  -7.791  1.00 12.21     0.154 A 
HETATM    4  C1    D T 302       7.481   0.555  -9.182  1.00 14.36     0.041 A 
HETATM    5  O17   D T 302       7.373  -0.489  -6.970  1.00 12.31    -0.188 OA
HETATM    6  C2    D T 302       7.671   1.701  -9.951  1.00 10.74     0.060 A 
HETATM    7  C3    D T 302       7.945   2.922  -9.341  1.00 14.97     0.014 A 
HETATM    8 CL14   D T 302       7.591   1.592 -11.696  1.00 13.78    -0.082 Cl
HETATM    9  C4    D T 302       8.014   3.001  -7.954  1.00 12.53     0.028 A 
ENDBRANCH   1   2
BRANCH   1  10
HETATM   10  C8    D T 302       9.152   1.823  -5.233  1.00 14.58     0.111 A 
HETATM   11  C9    D T 302       9.233   1.997  -3.860  1.00 16.10     0.081 A 
HETATM   12  C10   D T 302      10.446   1.955  -3.207  1.00 12.30     0.025 A 
HETATM   13 CL16   D T 302       7.780   2.290  -2.944  1.00 18.17    -0.080 Cl
HETATM   14  C11   D T 302      11.590   1.740  -3.936  1.00 13.57     0.059 A 
HETATM   15  C12   D T 302      11.533   1.557  -5.317  1.00 15.73     0.013 A 
HETATM   16 CL15   D T 302      13.101   1.712  -3.075  1.00 17.72    -0.082 Cl
HETATM   17  C13   D T 302      10.307   1.592  -5.976  1.00 14.41     0.026 A 
ENDBRANCH   1  10
TORSDOF 2
