REMARK  2 active torsions:
REMARK  status: ('A' for Active; 'I' for Inactive)
REMARK    1  A    between atoms: C5_4  and  O7_13 
REMARK    2  A    between atoms: C8_10  and  O7_13 
ROOT
HETATM    1  O7    D T 302       6.380   2.370  -6.703  1.00 10.35    -0.304 OA
ENDROOT
BRANCH   1   2
HETATM    2  C5    D T 302       6.198   2.178  -8.078  1.00 11.31     0.125 A 
HETATM    3  C6    D T 302       6.092   0.881  -8.541  1.00 12.21     0.154 A 
HETATM    4  C1    D T 302       5.887   0.646  -9.900  1.00 14.36     0.041 A 
HETATM    5  O17   D T 302       6.202  -0.175  -7.616  1.00 12.31    -0.188 OA
HETATM    6  C2    D T 302       5.787   1.725 -10.776  1.00 10.74     0.060 A 
HETATM    7  C3    D T 302       5.899   3.029 -10.303  1.00 14.97     0.014 A 
HETATM    8 CL14   D T 302       5.545   1.431 -12.484  1.00 13.78    -0.082 Cl
HETATM    9  C4    D T 302       6.098   3.257  -8.945  1.00 12.53     0.028 A 
ENDBRANCH   1   2
BRANCH   1  10
HETATM   10  C8    D T 302       7.708   2.566  -6.296  1.00 14.58     0.111 A 
HETATM   11  C9    D T 302       7.900   2.888  -4.961  1.00 16.10     0.081 A 
HETATM   12  C10   D T 302       9.163   3.118  -4.458  1.00 12.30     0.025 A 
HETATM   13 CL16   D T 302       6.522   3.020  -3.903  1.00 18.17    -0.080 Cl
HETATM   14  C11   D T 302      10.244   3.027  -5.301  1.00 13.57     0.059 A 
HETATM   15  C12   D T 302      10.076   2.701  -6.645  1.00 15.73     0.013 A 
HETATM   16 CL15   D T 302      11.817   3.342  -4.629  1.00 17.72    -0.082 Cl
HETATM   17  C13   D T 302       8.801   2.462  -7.152  1.00 14.41     0.026 A 
ENDBRANCH   1  10
TORSDOF 2
