REMARK  2 active torsions:
REMARK  status: ('A' for Active; 'I' for Inactive)
REMARK    1  A    between atoms: C5_4  and  O7_13 
REMARK    2  A    between atoms: C8_10  and  O7_13 
ROOT
HETATM    1  O7    D T 302       7.606   1.677  -6.065  1.00 10.35    -0.304 OA
ENDROOT
BRANCH   1   2
HETATM    2  C5    D T 302       7.552   1.512  -7.455  1.00 11.31     0.125 A 
HETATM    3  C6    D T 302       7.342   0.239  -7.946  1.00 12.21     0.154 A 
HETATM    4  C1    D T 302       7.258   0.034  -9.324  1.00 14.36     0.041 A 
HETATM    5  O17   D T 302       7.223  -0.826  -7.032  1.00 12.31    -0.188 OA
HETATM    6  C2    D T 302       7.383   1.120 -10.188  1.00 10.74     0.060 A 
HETATM    7  C3    D T 302       7.599   2.400  -9.684  1.00 14.97     0.014 A 
HETATM    8 CL14   D T 302       7.293   0.863 -11.916  1.00 13.78    -0.082 Cl
HETATM    9  C4    D T 302       7.676   2.598  -8.310  1.00 12.53     0.028 A 
ENDBRANCH   1   2
BRANCH   1  10
HETATM   10  C8    D T 302       8.896   1.710  -5.515  1.00 14.58     0.111 A 
HETATM   11  C9    D T 302       8.979   2.002  -4.163  1.00 16.10     0.081 A 
HETATM   12  C10   D T 302      10.199   2.076  -3.524  1.00 12.30     0.025 A 
HETATM   13 CL16   D T 302       7.521   2.296  -3.256  1.00 18.17    -0.080 Cl
HETATM   14  C11   D T 302      11.346   1.858  -4.247  1.00 13.57     0.059 A 
HETATM   15  C12   D T 302      11.287   1.558  -5.607  1.00 15.73     0.013 A 
HETATM   16 CL15   D T 302      12.864   1.978  -3.407  1.00 17.72    -0.082 Cl
HETATM   17  C13   D T 302      10.055   1.476  -6.251  1.00 14.41     0.026 A 
ENDBRANCH   1  10
TORSDOF 2
