REMARK  9 active torsions:
REMARK  status: ('A' for Active; 'I' for Inactive)
REMARK    1  A    between atoms: O02_2  and  CAX_24 
REMARK    2  A    between atoms: CAC_3  and  CAM_13 
REMARK    3  A    between atoms: CAC_3  and  NBH_34 
REMARK    4  A    between atoms: CAM_13  and  CAN_14 
REMARK    5  A    between atoms: CAN_14  and  OAW_23 
REMARK    6  A    between atoms: NAU_21  and  CBB_28 
REMARK    7  A    between atoms: NAU_21  and  CBE_31 
REMARK    8  A    between atoms: OAV_22  and  CBC_29 
REMARK    9  A    between atoms: OAW_23  and  CBD_30 
ROOT
HETATM    1  NAD   D T 401       3.855  -1.241  -8.102  1.00 19.83    -0.191 NA
HETATM    2  CAG   D T 401       3.944  -0.119  -8.329  1.00 22.89     0.104 C 
HETATM    3  CAH   D T 401       3.046   1.648  -9.472  1.00 14.94     0.111 A 
HETATM    4  CAK   D T 401       3.881   5.170  -9.789  1.00 20.70     0.045 A 
HETATM    5  CAL   D T 401       5.955   4.392  -8.072  1.00 20.29     0.029 A 
HETATM    6  NAT   D T 401       3.034   2.948  -9.817  1.00 16.88    -0.243 NA
HETATM    7  CBA   D T 401       4.041   1.157  -8.605  1.00 16.47     0.105 A 
HETATM    8  CBC   D T 401       5.871   5.739  -8.487  1.00 25.88     0.116 A 
HETATM    9  CBD   D T 401       4.821   6.120  -9.352  1.00 27.06     0.118 A 
HETATM   10  CBE   D T 401       5.057   2.046  -8.106  1.00 22.24     0.094 A 
HETATM   11  CBF   D T 401       3.966   3.831  -9.373  1.00 20.86     0.085 A 
HETATM   12  CBG   D T 401       5.010   3.415  -8.501  1.00 20.86     0.038 A 
ENDROOT
BRANCH  10  13
HETATM   13  NAU   D T 401       6.075   1.624  -7.260  1.00 16.88    -0.244 NA
BRANCH  13  14
HETATM   14  CBB   D T 401       6.588   0.360  -7.195  1.00 19.80     0.094 A 
HETATM   15  CAJ   D T 401       7.089  -0.279  -8.356  1.00 18.64     0.045 A 
HETATM   16  CAX   D T 401       7.594  -1.590  -8.269  1.00 17.07     0.106 A 
HETATM   17  CAY   D T 401       7.594  -2.269  -7.035  1.00 24.79     0.081 A 
HETATM   18 CL1    D T 401       8.195  -3.856  -6.973  1.00 27.04    -0.080 Cl
HETATM   19  CAI   D T 401       7.096  -1.650  -5.876  1.00 19.15     0.026 A 
HETATM   20  CAZ   D T 401       6.593  -0.339  -5.958  1.00 21.66     0.076 A 
HETATM   21 CL2    D T 401       6.001   0.369  -4.534  1.00 21.61    -0.081 Cl
BRANCH  16  22
HETATM   22  O02   D T 401       8.074  -2.267  -9.355  1.00 20.01    -0.327 OA
HETATM   23  C01   D T 401       7.952  -1.608 -10.627  1.00 19.16     0.181 C 
ENDBRANCH  16  22
ENDBRANCH  13  14
ENDBRANCH  10  13
BRANCH   8  24
HETATM   24  OAV   D T 401       6.777   6.694  -8.083  1.00 29.42    -0.326 OA
HETATM   25  CAA   D T 401       7.815   6.238  -7.198  1.00 25.21     0.181 C 
ENDBRANCH   8  24
BRANCH   9  26
HETATM   26  OAW   D T 401       4.712   7.409  -9.780  1.00 24.87    -0.329 OA
BRANCH  26  27
HETATM   27  CAN   D T 401       3.383   7.949  -9.959  1.00 25.33     0.151 C 
BRANCH  27  28
HETATM   28  CAM   D T 401       3.522   9.488  -9.787  1.00 30.63     0.068 C 
BRANCH  28  29
HETATM   29  CAC   D T 401       2.856  10.336 -10.898  1.00 41.99     0.253 C 
BRANCH  29  30
HETATM   30  NBH   D T 401       3.824  11.140 -11.732  1.00 46.77     0.141 N 
HETATM   31  CAP   D T 401       3.752  12.623 -11.531  1.00 49.95     0.285 C 
HETATM   32  CAR   D T 401       4.645  13.358 -12.561  1.00 58.84     0.285 C 
HETATM   33  NBI   D T 401       6.055  12.865 -12.500  1.00 60.13     0.143 N 
HETATM   34  CAO   D T 401       6.958  13.642 -13.393  1.00 54.26     0.285 C 
HETATM   35  CAS   D T 401       6.151  11.388 -12.706  1.00 43.59     0.285 C 
HETATM   36  CAQ   D T 401       5.239  10.642 -11.698  1.00 43.83     0.285 C 
ENDBRANCH  29  30
ENDBRANCH  28  29
ENDBRANCH  27  28
ENDBRANCH  26  27
ENDBRANCH   9  26
TORSDOF 9
