REMARK  9 active torsions:
REMARK  status: ('A' for Active; 'I' for Inactive)
REMARK    1  A    between atoms: O02_2  and  CAX_24 
REMARK    2  A    between atoms: CAC_3  and  CAM_13 
REMARK    3  A    between atoms: CAC_3  and  NBH_34 
REMARK    4  A    between atoms: CAM_13  and  CAN_14 
REMARK    5  A    between atoms: CAN_14  and  OAW_23 
REMARK    6  A    between atoms: NAU_21  and  CBB_28 
REMARK    7  A    between atoms: NAU_21  and  CBE_31 
REMARK    8  A    between atoms: OAV_22  and  CBC_29 
REMARK    9  A    between atoms: OAW_23  and  CBD_30 
ROOT
HETATM    1  NAD   D T 401      -6.164   3.629  -4.400  1.00 19.83    -0.191 NA
HETATM    2  CAG   D T 401      -6.963   3.000  -4.933  1.00 22.89     0.104 C 
HETATM    3  CAH   D T 401      -7.348   1.176  -6.261  1.00 14.94     0.111 A 
HETATM    4  CAK   D T 401     -10.314  -0.353  -7.698  1.00 20.70     0.045 A 
HETATM    5  CAL   D T 401     -11.537   1.795  -6.378  1.00 20.29     0.029 A 
HETATM    6  NAT   D T 401      -8.177   0.355  -6.929  1.00 16.88    -0.243 NA
HETATM    7  CBA   D T 401      -7.863   2.281  -5.555  1.00 16.47     0.105 A 
HETATM    8  CBC   D T 401     -12.337   0.886  -7.106  1.00 25.88     0.116 A 
HETATM    9  CBD   D T 401     -11.708  -0.192  -7.767  1.00 27.06     0.118 A 
HETATM   10  CBE   D T 401      -9.279   2.540  -5.568  1.00 22.24     0.094 A 
HETATM   11  CBF   D T 401      -9.522   0.550  -6.971  1.00 20.86     0.085 A 
HETATM   12  CBG   D T 401     -10.122   1.647  -6.293  1.00 20.86     0.038 A 
ENDROOT
BRANCH  10  13
HETATM   13  NAU   D T 401      -9.851   3.619  -4.906  1.00 16.88    -0.244 NA
BRANCH  13  14
HETATM   14  CBB   D T 401      -9.233   4.806  -4.629  1.00 19.80     0.094 A 
HETATM   15  CAJ   D T 401      -8.634   5.568  -5.660  1.00 18.64     0.045 A 
HETATM   16  CAX   D T 401      -7.985   6.778  -5.348  1.00 17.07     0.106 A 
HETATM   17  CAY   D T 401      -7.924   7.224  -4.013  1.00 24.79     0.081 A 
HETATM   18 CL1    D T 401      -7.116   8.680  -3.673  1.00 27.04    -0.080 Cl
HETATM   19  CAI   D T 401      -8.509   6.476  -2.979  1.00 19.15     0.026 A 
HETATM   20  CAZ   D T 401      -9.161   5.268  -3.287  1.00 21.66     0.076 A 
HETATM   21 CL2    D T 401      -9.853   4.397  -2.007  1.00 21.61    -0.081 Cl
BRANCH  16  22
HETATM   22  O02   D T 401      -7.371   7.550  -6.295  1.00 20.01    -0.327 OA
HETATM   23  C01   D T 401      -7.335   7.019  -7.630  1.00 19.16     0.181 C 
ENDBRANCH  16  22
ENDBRANCH  13  14
ENDBRANCH  10  13
BRANCH   8  24
HETATM   24  OAV   D T 401     -13.704   1.017  -7.199  1.00 29.42    -0.326 OA
HETATM   25  CAA   D T 401     -14.276   2.134  -6.496  1.00 25.21     0.181 C 
ENDBRANCH   8  24
BRANCH   9  26
HETATM   26  OAW   D T 401     -12.447  -1.084  -8.486  1.00 24.87    -0.329 OA
BRANCH  26  27
HETATM   27  CAN   D T 401     -12.021  -2.466  -8.483  1.00 25.33     0.151 C 
BRANCH  27  28
HETATM   28  CAM   D T 401     -13.300  -3.305  -8.768  1.00 30.63     0.068 C 
BRANCH  28  29
HETATM   29  CAC   D T 401     -13.149  -4.378  -9.874  1.00 41.99     0.253 C 
BRANCH  29  30
HETATM   30  NBH   D T 401     -13.999  -4.132 -11.098  1.00 46.77     0.141 N 
HETATM   31  CAP   D T 401     -15.125  -5.102 -11.289  1.00 49.95     0.285 C 
HETATM   32  CAR   D T 401     -15.811  -4.878 -12.660  1.00 58.84     0.285 C 
HETATM   33  NBI   D T 401     -16.275  -3.463 -12.805  1.00 60.13     0.143 N 
HETATM   34  CAO   D T 401     -17.047  -3.255 -14.061  1.00 54.26     0.285 C 
HETATM   35  CAS   D T 401     -15.165  -2.479 -12.624  1.00 43.59     0.285 C 
HETATM   36  CAQ   D T 401     -14.451  -2.712 -11.268  1.00 43.83     0.285 C 
ENDBRANCH  29  30
ENDBRANCH  28  29
ENDBRANCH  27  28
ENDBRANCH  26  27
ENDBRANCH   9  26
TORSDOF 9
