REMARK  9 active torsions:
REMARK  status: ('A' for Active; 'I' for Inactive)
REMARK    1  A    between atoms: O02_2  and  CAX_24 
REMARK    2  A    between atoms: CAC_3  and  CAM_13 
REMARK    3  A    between atoms: CAC_3  and  NBH_34 
REMARK    4  A    between atoms: CAM_13  and  CAN_14 
REMARK    5  A    between atoms: CAN_14  and  OAW_23 
REMARK    6  A    between atoms: NAU_21  and  CBB_28 
REMARK    7  A    between atoms: NAU_21  and  CBE_31 
REMARK    8  A    between atoms: OAV_22  and  CBC_29 
REMARK    9  A    between atoms: OAW_23  and  CBD_30 
ROOT
HETATM    1  NAD   D T 401       0.338  10.458   1.311  1.00 19.83    -0.191 NA
HETATM    2  CAG   D T 401       1.398  10.411   1.750  1.00 22.89     0.104 C 
HETATM    3  CAH   D T 401       2.807   9.272   3.147  1.00 14.94     0.111 A 
HETATM    4  CAK   D T 401       6.268   9.688   4.172  1.00 20.70     0.045 A 
HETATM    5  CAL   D T 401       6.056  11.905   2.471  1.00 20.29     0.029 A 
HETATM    6  NAT   D T 401       4.007   9.098   3.730  1.00 16.88    -0.243 NA
HETATM    7  CBA   D T 401       2.599  10.351   2.266  1.00 16.47     0.105 A 
HETATM    8  CBC   D T 401       7.282  11.652   3.126  1.00 25.88     0.116 A 
HETATM    9  CBD   D T 401       7.377  10.531   3.981  1.00 27.06     0.118 A 
HETATM   10  CBE   D T 401       3.669  11.279   2.007  1.00 22.24     0.094 A 
HETATM   11  CBF   D T 401       5.052   9.941   3.517  1.00 20.86     0.085 A 
HETATM   12  CBG   D T 401       4.923  11.060   2.649  1.00 20.86     0.038 A 
ENDROOT
BRANCH  10  13
HETATM   13  NAU   D T 401       3.527  12.371   1.161  1.00 16.88    -0.244 NA
BRANCH  13  14
HETATM   14  CBB   D T 401       2.358  13.027   0.892  1.00 19.80     0.094 A 
HETATM   15  CAJ   D T 401       1.563  13.549   1.940  1.00 18.64     0.045 A 
HETATM   16  CAX   D T 401       0.353  14.203   1.639  1.00 17.07     0.106 A 
HETATM   17  CAY   D T 401      -0.070  14.330   0.302  1.00 24.79     0.081 A 
HETATM   18 CL1    D T 401      -1.545  15.109  -0.021  1.00 27.04    -0.080 Cl
HETATM   19  CAI   D T 401       0.706  13.813  -0.748  1.00 19.15     0.026 A 
HETATM   20  CAZ   D T 401       1.917  13.161  -0.452  1.00 21.66     0.076 A 
HETATM   21 CL2    D T 401       2.822  12.551  -1.751  1.00 21.61    -0.081 Cl
BRANCH  16  22
HETATM   22  O02   D T 401      -0.469  14.712   2.606  1.00 20.01    -0.327 OA
HETATM   23  C01   D T 401      -0.085  14.465   3.969  1.00 19.16     0.181 C 
ENDBRANCH  16  22
ENDBRANCH  13  14
ENDBRANCH  10  13
BRANCH   8  24
HETATM   24  OAV   D T 401       8.386  12.460   2.965  1.00 29.42    -0.326 OA
HETATM   25  CAA   D T 401       8.219  13.578   2.076  1.00 25.21     0.181 C 
ENDBRANCH   8  24
BRANCH   9  26
HETATM   26  OAW   D T 401       8.541  10.260   4.636  1.00 24.87    -0.329 OA
BRANCH  26  27
HETATM   27  CAN   D T 401       8.895   8.872   4.831  1.00 25.33     0.151 C 
BRANCH  27  28
HETATM   28  CAM   D T 401      10.444   8.842   4.961  1.00 30.63     0.068 C 
BRANCH  28  29
HETATM   29  CAC   D T 401      10.987   8.039   6.168  1.00 41.99     0.253 C 
BRANCH  29  30
HETATM   30  NBH   D T 401      11.710   8.876   7.197  1.00 46.77     0.141 N 
HETATM   31  CAP   D T 401      13.189   8.644   7.274  1.00 49.95     0.285 C 
HETATM   32  CAR   D T 401      13.798   9.405   8.477  1.00 58.84     0.285 C 
HETATM   33  NBI   D T 401      13.475  10.864   8.411  1.00 60.13     0.143 N 
HETATM   34  CAO   D T 401      14.154  11.635   9.488  1.00 54.26     0.285 C 
HETATM   35  CAS   D T 401      12.004  11.117   8.341  1.00 43.59     0.285 C 
HETATM   36  CAQ   D T 401      11.377  10.338   7.157  1.00 43.83     0.285 C 
ENDBRANCH  29  30
ENDBRANCH  28  29
ENDBRANCH  27  28
ENDBRANCH  26  27
ENDBRANCH   9  26
TORSDOF 9
