REMARK  9 active torsions:
REMARK  status: ('A' for Active; 'I' for Inactive)
REMARK    1  A    between atoms: O02_2  and  CAX_24 
REMARK    2  A    between atoms: CAC_3  and  CAM_13 
REMARK    3  A    between atoms: CAC_3  and  NBH_34 
REMARK    4  A    between atoms: CAM_13  and  CAN_14 
REMARK    5  A    between atoms: CAN_14  and  OAW_23 
REMARK    6  A    between atoms: NAU_21  and  CBB_28 
REMARK    7  A    between atoms: NAU_21  and  CBE_31 
REMARK    8  A    between atoms: OAV_22  and  CBC_29 
REMARK    9  A    between atoms: OAW_23  and  CBD_30 
ROOT
HETATM    1  NAD   D T 401      -1.088  -3.171  -4.331  1.00 19.83    -0.191 NA
HETATM    2  CAG   D T 401      -1.601  -4.147  -4.652  1.00 22.89     0.104 C 
HETATM    3  CAH   D T 401      -1.401  -6.423  -4.789  1.00 14.94     0.111 A 
HETATM    4  CAK   D T 401      -3.532  -9.102  -6.006  1.00 20.70     0.045 A 
HETATM    5  CAL   D T 401      -5.210  -6.930  -6.573  1.00 20.29     0.029 A 
HETATM    6  NAT   D T 401      -1.886  -7.633  -5.116  1.00 16.88    -0.243 NA
HETATM    7  CBA   D T 401      -2.170  -5.266  -5.023  1.00 16.47     0.105 A 
HETATM    8  CBC   D T 401      -5.642  -8.237  -6.889  1.00 25.88     0.116 A 
HETATM    9  CBD   D T 401      -4.788  -9.324  -6.598  1.00 27.06     0.118 A 
HETATM   10  CBE   D T 401      -3.469  -5.382  -5.633  1.00 22.24     0.094 A 
HETATM   11  CBF   D T 401      -3.107  -7.801  -5.690  1.00 20.86     0.085 A 
HETATM   12  CBG   D T 401      -3.943  -6.684  -5.969  1.00 20.86     0.038 A 
ENDROOT
BRANCH  10  13
HETATM   13  NAU   D T 401      -4.272  -4.283  -5.904  1.00 16.88    -0.244 NA
BRANCH  13  14
HETATM   14  CBB   D T 401      -3.832  -3.012  -6.148  1.00 19.80     0.094 A 
HETATM   15  CAJ   D T 401      -2.885  -2.756  -7.168  1.00 18.64     0.045 A 
HETATM   16  CAX   D T 401      -2.430  -1.442  -7.387  1.00 17.07     0.106 A 
HETATM   17  CAY   D T 401      -2.909  -0.385  -6.588  1.00 24.79     0.081 A 
HETATM   18 CL1    D T 401      -2.325   1.185  -6.869  1.00 27.04    -0.080 Cl
HETATM   19  CAI   D T 401      -3.846  -0.624  -5.569  1.00 19.15     0.026 A 
HETATM   20  CAZ   D T 401      -4.305  -1.936  -5.349  1.00 21.66     0.076 A 
HETATM   21 CL2    D T 401      -5.435  -2.178  -4.107  1.00 21.61    -0.081 Cl
BRANCH  16  22
HETATM   22  O02   D T 401      -1.503  -1.132  -8.343  1.00 20.01    -0.327 OA
HETATM   23  C01   D T 401      -0.933  -2.237  -9.063  1.00 19.16     0.181 C 
ENDBRANCH  16  22
ENDBRANCH  13  14
ENDBRANCH  10  13
BRANCH   8  24
HETATM   24  OAV   D T 401      -6.863  -8.490  -7.474  1.00 29.42    -0.326 OA
HETATM   25  CAA   D T 401      -7.683  -7.337  -7.736  1.00 25.21     0.181 C 
ENDBRANCH   8  24
BRANCH   9  26
HETATM   26  OAW   D T 401      -5.167 -10.598  -6.897  1.00 24.87    -0.329 OA
BRANCH  26  27
HETATM   27  CAN   D T 401      -4.758 -11.650  -5.994  1.00 25.33     0.151 C 
BRANCH  27  28
HETATM   28  CAM   D T 401      -5.807 -12.787  -6.162  1.00 30.63     0.068 C 
BRANCH  28  29
HETATM   29  CAC   D T 401      -5.214 -14.202  -6.371  1.00 41.99     0.253 C 
BRANCH  29  30
HETATM   30  NBH   D T 401      -5.513 -14.808  -7.722  1.00 46.77     0.141 N 
HETATM   31  CAP   D T 401      -6.456 -15.971  -7.697  1.00 49.95     0.285 C 
HETATM   32  CAR   D T 401      -6.546 -16.631  -9.096  1.00 58.84     0.285 C 
HETATM   33  NBI   D T 401      -6.936 -15.631 -10.138  1.00 60.13     0.143 N 
HETATM   34  CAO   D T 401      -7.149 -16.266 -11.468  1.00 54.26     0.285 C 
HETATM   35  CAS   D T 401      -6.002 -14.465 -10.184  1.00 43.59     0.285 C 
HETATM   36  CAQ   D T 401      -5.882 -13.813  -8.783  1.00 43.83     0.285 C 
ENDBRANCH  29  30
ENDBRANCH  28  29
ENDBRANCH  27  28
ENDBRANCH  26  27
ENDBRANCH   9  26
TORSDOF 9
