REMARK  7 active torsions:
REMARK  status: ('A' for Active; 'I' for Inactive)
REMARK    1  A    between atoms: C22_10  and  C19_16 
REMARK       I    between atoms: C22_10  and  N25_19 
REMARK    2  A    between atoms: C12_12  and  C18_15 
REMARK    3  A    between atoms: N25_19  and  C37_23 
REMARK    4  A    between atoms: C37_23  and  C38_24 
REMARK    5  A    between atoms: C38_24  and  N4_25 
REMARK    6  A    between atoms: N4_25  and  C39_26 
REMARK    7  A    between atoms: N4_25  and  C40_27 
ROOT
HETATM    1  C4    D T 401       5.522   1.886  12.158  1.00 25.65     0.052 C 
HETATM    2  C13   D T 401       4.946   5.083  10.296  1.00 28.91     0.002 A 
HETATM    3  C3    D T 401       5.297   6.464   9.762  1.00 31.15     0.033 C 
HETATM    4  C14   D T 401       5.057   3.091  11.352  1.00 29.63     0.064 A 
HETATM    5  C18   D T 401       3.756   4.400  10.113  1.00 27.57     0.077 A 
HETATM    6  C19   D T 401       5.785   4.244  11.094  1.00 27.94     0.069 A 
HETATM    7  N23   D T 401       3.851   3.209  10.750  1.00 23.32    -0.250 NA
ENDROOT
BRANCH   5   8
HETATM    8  C12   D T 401       2.586   4.898   9.352  1.00 27.08     0.024 C 
HETATM    9  C20   D T 401       1.457   4.150   9.035  1.00 23.71     0.061 A 
HETATM   10  C17   D T 401       0.535   4.563   8.006  1.00 26.90     0.025 A 
HETATM   11  C21   D T 401       0.960   2.957   9.569  1.00 23.79     0.279 A 
HETATM   12  C7    D T 401       0.520   5.679   7.133  1.00 28.25     0.031 A 
HETATM   13  C16   D T 401      -0.463   3.615   7.946  1.00 23.25     0.085 A 
HETATM   14  C15   D T 401      -0.535   5.814   6.194  1.00 30.52     0.140 A 
HETATM   15  C5    D T 401      -1.556   4.855   6.132  1.00 27.96     0.031 A 
HETATM   16  F29   D T 401      -0.563   6.856   5.363  1.00 36.08    -0.204 F 
HETATM   17  C6    D T 401      -1.546   3.767   6.991  1.00 30.63     0.021 A 
HETATM   18  N24   D T 401      -0.198   2.646   8.905  1.00 22.38    -0.208 NA
HETATM   19  O27   D T 401       1.410   2.285  10.458  1.00 24.04    -0.265 OA
ENDBRANCH   5   8
BRANCH   6  20
HETATM   20  C22   D T 401       7.217   4.561  11.559  1.00 30.01     0.276 C 
HETATM   21  N25   D T 401       8.144   5.124  10.616  1.00 32.50    -0.232 NA
HETATM   22  O28   D T 401       7.554   4.322  12.731  1.00 32.52    -0.266 OA
BRANCH  21  23
HETATM   23  C37   D T 401       9.507   5.445  10.987  1.00 43.36     0.164 C 
BRANCH  23  24
HETATM   24  C38   D T 401      10.517   4.317  11.032  1.00 41.32     0.276 C 
BRANCH  24  25
HETATM   25  N4    D T 401      11.767   4.534  11.763  1.00 49.47     0.139 N 
BRANCH  25  26
HETATM   26  C39   D T 401      11.519   4.388  13.219  1.00 47.52     0.250 C 
HETATM   27  C42   D T 401      12.190   3.285  13.939  1.00 42.88     0.037 C 
ENDBRANCH  25  26
BRANCH  25  28
HETATM   28  C40   D T 401      12.367   5.830  11.456  1.00 47.71     0.250 C 
HETATM   29  C41   D T 401      13.044   6.597  12.552  1.00 49.11     0.037 C 
ENDBRANCH  25  28
ENDBRANCH  24  25
ENDBRANCH  23  24
ENDBRANCH  21  23
ENDBRANCH   6  20
TORSDOF 7
