REMARK  7 active torsions:
REMARK  status: ('A' for Active; 'I' for Inactive)
REMARK    1  A    between atoms: C22_10  and  C19_16 
REMARK       I    between atoms: C22_10  and  N25_19 
REMARK    2  A    between atoms: C12_12  and  C18_15 
REMARK    3  A    between atoms: N25_19  and  C37_23 
REMARK    4  A    between atoms: C37_23  and  C38_24 
REMARK    5  A    between atoms: C38_24  and  N4_25 
REMARK    6  A    between atoms: N4_25  and  C39_26 
REMARK    7  A    between atoms: N4_25  and  C40_27 
ROOT
HETATM    1  C4    D T 401     -11.958  -2.939  -9.052  1.00 25.65     0.052 C 
HETATM    2  C13   D T 401     -13.078   0.244  -7.430  1.00 28.91     0.002 A 
HETATM    3  C3    D T 401     -14.082   1.271  -6.930  1.00 31.15     0.033 C 
HETATM    4  C14   D T 401     -12.165  -1.596  -8.365  1.00 29.63     0.064 A 
HETATM    5  C18   D T 401     -11.698   0.324  -7.349  1.00 27.57     0.077 A 
HETATM    6  C19   D T 401     -13.381  -0.990  -8.085  1.00 27.94     0.069 A 
HETATM    7  N23   D T 401     -11.176  -0.792  -7.911  1.00 23.32    -0.250 NA
ENDROOT
BRANCH   5   8
HETATM    8  C12   D T 401     -10.935   1.445  -6.751  1.00 27.08     0.024 C 
HETATM    9  C20   D T 401      -9.562   1.452  -6.527  1.00 23.71     0.061 A 
HETATM   10  C17   D T 401      -8.942   2.396  -5.632  1.00 26.90     0.025 A 
HETATM   11  C21   D T 401      -8.536   0.661  -7.053  1.00 23.79     0.279 A 
HETATM   12  C7    D T 401      -9.474   3.432  -4.823  1.00 28.25     0.031 A 
HETATM   13  C16   D T 401      -7.588   2.140  -5.638  1.00 23.25     0.085 A 
HETATM   14  C15   D T 401      -8.598   4.204  -4.017  1.00 30.52     0.140 A 
HETATM   15  C5    D T 401      -7.219   3.951  -4.023  1.00 27.96     0.031 A 
HETATM   16  F29   D T 401      -9.081   5.181  -3.248  1.00 36.08    -0.204 F 
HETATM   17  C6    D T 401      -6.698   2.943  -4.820  1.00 30.63     0.021 A 
HETATM   18  N24   D T 401      -7.351   1.086  -6.510  1.00 22.38    -0.208 NA
HETATM   19  O27   D T 401      -8.611  -0.235  -7.851  1.00 24.04    -0.265 OA
ENDBRANCH   5   8
BRANCH   6  20
HETATM   20  C22   D T 401     -14.786  -1.535  -8.400  1.00 30.01     0.276 C 
HETATM   21  N25   D T 401     -15.802  -1.460  -7.387  1.00 32.50    -0.232 NA
HETATM   22  O28   D T 401     -15.018  -2.037  -9.513  1.00 32.52    -0.266 OA
BRANCH  21  23
HETATM   23  C37   D T 401     -17.144  -1.956  -7.617  1.00 43.36     0.164 C 
BRANCH  23  24
HETATM   24  C38   D T 401     -17.383  -3.447  -7.491  1.00 41.32     0.276 C 
BRANCH  24  25
HETATM   25  N4    D T 401     -18.599  -4.006  -8.085  1.00 49.47     0.139 N 
BRANCH  25  26
HETATM   26  C39   D T 401     -18.411  -4.147  -9.551  1.00 47.52     0.250 C 
HETATM   27  C42   D T 401     -18.426  -5.505 -10.134  1.00 42.88     0.037 C 
ENDBRANCH  25  26
BRANCH  25  28
HETATM   28  C40   D T 401     -19.781  -3.207  -7.777  1.00 47.71     0.250 C 
HETATM   29  C41   D T 401     -20.839  -3.037  -8.827  1.00 49.11     0.037 C 
ENDBRANCH  25  28
ENDBRANCH  24  25
ENDBRANCH  23  24
ENDBRANCH  21  23
ENDBRANCH   6  20
TORSDOF 7
