REMARK  7 active torsions:
REMARK  status: ('A' for Active; 'I' for Inactive)
REMARK    1  A    between atoms: C22_10  and  C19_16 
REMARK       I    between atoms: C22_10  and  N25_19 
REMARK    2  A    between atoms: C12_12  and  C18_15 
REMARK    3  A    between atoms: N25_19  and  C37_23 
REMARK    4  A    between atoms: C37_23  and  C38_24 
REMARK    5  A    between atoms: C38_24  and  N4_25 
REMARK    6  A    between atoms: N4_25  and  C39_26 
REMARK    7  A    between atoms: N4_25  and  C40_27 
ROOT
HETATM    1  C4    D T 401       3.246   8.393 -10.519  1.00 25.65     0.052 C 
HETATM    2  C13   D T 401       5.987   6.772  -8.551  1.00 28.91     0.002 A 
HETATM    3  C3    D T 401       7.251   6.724  -7.705  1.00 31.15     0.033 C 
HETATM    4  C14   D T 401       4.247   7.515  -9.782  1.00 29.63     0.064 A 
HETATM    5  C18   D T 401       5.229   5.693  -8.971  1.00 27.57     0.077 A 
HETATM    6  C19   D T 401       5.358   7.945  -9.072  1.00 27.94     0.069 A 
HETATM    7  N23   D T 401       4.191   6.165  -9.702  1.00 23.32    -0.250 NA
ENDROOT
BRANCH   5   8
HETATM    8  C12   D T 401       5.516   4.270  -8.672  1.00 27.08     0.024 C 
HETATM    9  C20   D T 401       4.671   3.203  -8.958  1.00 23.71     0.061 A 
HETATM   10  C17   D T 401       4.832   1.915  -8.332  1.00 26.90     0.025 A 
HETATM   11  C21   D T 401       3.584   3.094  -9.832  1.00 23.79     0.279 A 
HETATM   12  C7    D T 401       5.754   1.433  -7.369  1.00 28.25     0.031 A 
HETATM   13  C16   D T 401       3.847   1.089  -8.831  1.00 23.25     0.085 A 
HETATM   14  C15   D T 401       5.655   0.090  -6.922  1.00 30.52     0.140 A 
HETATM   15  C5    D T 401       4.658  -0.755  -7.430  1.00 27.96     0.031 A 
HETATM   16  F29   D T 401       6.512  -0.379  -6.015  1.00 36.08    -0.204 F 
HETATM   17  C6    D T 401       3.761  -0.287  -8.377  1.00 30.63     0.021 A 
HETATM   18  N24   D T 401       3.098   1.815  -9.747  1.00 22.38    -0.208 NA
HETATM   19  O27   D T 401       3.120   3.927 -10.564  1.00 24.04    -0.265 OA
ENDBRANCH   5   8
BRANCH   6  20
HETATM   20  C22   D T 401       5.824   9.398  -8.867  1.00 30.01     0.276 C 
HETATM   21  N25   D T 401       6.232   9.817  -7.554  1.00 32.50    -0.232 NA
HETATM   22  O28   D T 401       5.834  10.185  -9.829  1.00 32.52    -0.266 OA
BRANCH  21  23
HETATM   23  C37   D T 401       6.680  11.169  -7.293  1.00 43.36     0.164 C 
BRANCH  23  24
HETATM   24  C38   D T 401       5.629  12.246  -7.113  1.00 41.32     0.276 C 
BRANCH  24  25
HETATM   25  N4    D T 401       6.040  13.645  -7.237  1.00 49.47     0.139 N 
BRANCH  25  26
HETATM   26  C39   D T 401       6.171  13.995  -8.674  1.00 47.52     0.250 C 
HETATM   27  C42   D T 401       5.261  15.016  -9.234  1.00 42.88     0.037 C 
ENDBRANCH  25  26
BRANCH  25  28
HETATM   28  C40   D T 401       7.276  13.923  -6.510  1.00 47.71     0.250 C 
HETATM   29  C41   D T 401       8.272  14.873  -7.104  1.00 49.11     0.037 C 
ENDBRANCH  25  28
ENDBRANCH  24  25
ENDBRANCH  23  24
ENDBRANCH  21  23
ENDBRANCH   6  20
TORSDOF 7
