REMARK  7 active torsions:
REMARK  status: ('A' for Active; 'I' for Inactive)
REMARK    1  A    between atoms: C22_10  and  C19_16 
REMARK       I    between atoms: C22_10  and  N25_19 
REMARK    2  A    between atoms: C12_12  and  C18_15 
REMARK    3  A    between atoms: N25_19  and  C37_23 
REMARK    4  A    between atoms: C37_23  and  C38_24 
REMARK    5  A    between atoms: C38_24  and  N4_25 
REMARK    6  A    between atoms: N4_25  and  C39_26 
REMARK    7  A    between atoms: N4_25  and  C40_27 
ROOT
HETATM    1  C4    D T 401      -4.687  -9.511  11.390  1.00 25.65     0.052 C 
HETATM    2  C13   D T 401      -2.651  -6.418  11.938  1.00 28.91     0.002 A 
HETATM    3  C3    D T 401      -1.442  -5.610  12.385  1.00 31.15     0.033 C 
HETATM    4  C14   D T 401      -4.060  -8.130  11.515  1.00 29.63     0.064 A 
HETATM    5  C18   D T 401      -3.813  -5.926  11.368  1.00 27.57     0.077 A 
HETATM    6  C19   D T 401      -2.808  -7.836  12.035  1.00 27.94     0.069 A 
HETATM    7  N23   D T 401      -4.637  -6.971  11.121  1.00 23.32    -0.250 NA
ENDROOT
BRANCH   5   8
HETATM    8  C12   D T 401      -4.096  -4.499  11.087  1.00 27.08     0.024 C 
HETATM    9  C20   D T 401      -5.191  -4.024  10.373  1.00 23.71     0.061 A 
HETATM   10  C17   D T 401      -5.224  -2.689   9.829  1.00 26.90     0.025 A 
HETATM   11  C21   D T 401      -6.410  -4.624  10.043  1.00 23.79     0.279 A 
HETATM   12  C7    D T 401      -4.282  -1.631   9.846  1.00 28.25     0.031 A 
HETATM   13  C16   D T 401      -6.436  -2.536   9.190  1.00 23.25     0.085 A 
HETATM   14  C15   D T 401      -4.597  -0.408   9.198  1.00 30.52     0.140 A 
HETATM   15  C5    D T 401      -5.830  -0.245   8.551  1.00 27.96     0.031 A 
HETATM   16  F29   D T 401      -3.721   0.597   9.202  1.00 36.08    -0.204 F 
HETATM   17  C6    D T 401      -6.755  -1.278   8.540  1.00 30.63     0.021 A 
HETATM   18  N24   D T 401      -7.152  -3.717   9.331  1.00 22.38    -0.208 NA
HETATM   19  O27   D T 401      -6.805  -5.727  10.316  1.00 24.04    -0.265 OA
ENDBRANCH   5   8
BRANCH   6  20
HETATM   20  C22   D T 401      -1.776  -8.831  12.596  1.00 30.01     0.276 C 
HETATM   21  N25   D T 401      -0.398  -8.694  12.211  1.00 32.50    -0.232 NA
HETATM   22  O28   D T 401      -2.146  -9.739  13.360  1.00 32.52    -0.266 OA
BRANCH  21  23
HETATM   23  C37   D T 401       0.622  -9.597  12.701  1.00 43.36     0.164 C 
BRANCH  23  24
HETATM   24  C38   D T 401       0.758 -10.949  12.030  1.00 41.32     0.276 C 
BRANCH  24  25
HETATM   25  N4    D T 401       1.490 -12.003  12.735  1.00 49.47     0.139 N 
BRANCH  25  26
HETATM   26  C39   D T 401       0.616 -12.595  13.779  1.00 47.52     0.250 C 
HETATM   27  C42   D T 401       0.231 -14.016  13.650  1.00 42.88     0.037 C 
ENDBRANCH  25  26
BRANCH  25  28
HETATM   28  C40   D T 401       2.743 -11.517  13.305  1.00 47.71     0.250 C 
HETATM   29  C41   D T 401       3.185 -12.038  14.640  1.00 49.11     0.037 C 
ENDBRANCH  25  28
ENDBRANCH  24  25
ENDBRANCH  23  24
ENDBRANCH  21  23
ENDBRANCH   6  20
TORSDOF 7
