REMARK  7 active torsions:
REMARK  status: ('A' for Active; 'I' for Inactive)
REMARK    1  A    between atoms: C22_10  and  C19_16 
REMARK       I    between atoms: C22_10  and  N25_19 
REMARK    2  A    between atoms: C12_12  and  C18_15 
REMARK    3  A    between atoms: N25_19  and  C37_23 
REMARK    4  A    between atoms: C37_23  and  C38_24 
REMARK    5  A    between atoms: C38_24  and  N4_25 
REMARK    6  A    between atoms: N4_25  and  C39_26 
REMARK    7  A    between atoms: N4_25  and  C40_27 
ROOT
HETATM    1  C4    D T 401       9.140   8.499   5.469  1.00 25.65     0.052 C 
HETATM    2  C13   D T 401       8.267  11.497   3.404  1.00 28.91     0.002 A 
HETATM    3  C3    D T 401       8.533  12.790   2.648  1.00 31.15     0.033 C 
HETATM    4  C14   D T 401       8.546   9.630   4.642  1.00 29.63     0.064 A 
HETATM    5  C18   D T 401       7.046  10.863   3.559  1.00 27.57     0.077 A 
HETATM    6  C19   D T 401       9.233  10.707   4.101  1.00 27.94     0.069 A 
HETATM    7  N23   D T 401       7.242   9.746   4.299  1.00 23.32    -0.250 NA
ENDROOT
BRANCH   5   8
HETATM    8  C12   D T 401       5.754  11.336   3.008  1.00 27.08     0.024 C 
HETATM    9  C20   D T 401       4.563  10.619   3.029  1.00 23.71     0.061 A 
HETATM   10  C17   D T 401       3.452  10.964   2.177  1.00 26.90     0.025 A 
HETATM   11  C21   D T 401       4.158   9.520   3.794  1.00 23.79     0.279 A 
HETATM   12  C7    D T 401       3.280  11.976   1.200  1.00 28.25     0.031 A 
HETATM   13  C16   D T 401       2.437  10.070   2.443  1.00 23.25     0.085 A 
HETATM   14  C15   D T 401       2.052  12.063   0.496  1.00 30.52     0.140 A 
HETATM   15  C5    D T 401       1.014  11.159   0.766  1.00 27.96     0.031 A 
HETATM   16  F29   D T 401       1.874  13.007  -0.428  1.00 36.08    -0.204 F 
HETATM   17  C6    D T 401       1.179  10.173   1.727  1.00 30.63     0.021 A 
HETATM   18  N24   D T 401       2.875   9.199   3.432  1.00 22.38    -0.208 NA
HETATM   19  O27   D T 401       4.770   8.927   4.642  1.00 24.04    -0.265 OA
ENDBRANCH   5   8
BRANCH   6  20
HETATM   20  C22   D T 401      10.741  10.997   4.211  1.00 30.01     0.276 C 
HETATM   21  N25   D T 401      11.458  11.402   3.033  1.00 32.50    -0.232 NA
HETATM   22  O28   D T 401      11.316  10.871   5.306  1.00 32.52    -0.266 OA
BRANCH  21  23
HETATM   23  C37   D T 401      12.877  11.689   3.067  1.00 43.36     0.164 C 
BRANCH  23  24
HETATM   24  C38   D T 401      13.841  10.520   3.032  1.00 41.32     0.276 C 
BRANCH  24  25
HETATM   25  N4    D T 401      15.225  10.750   3.451  1.00 49.47     0.139 N 
BRANCH  25  26
HETATM   26  C39   D T 401      15.293  10.778   4.933  1.00 47.52     0.250 C 
HETATM   27  C42   D T 401      16.072   9.727   5.621  1.00 42.88     0.037 C 
ENDBRANCH  25  26
BRANCH  25  28
HETATM   28  C40   D T 401      15.781  11.970   2.872  1.00 47.71     0.250 C 
HETATM   29  C41   D T 401      16.700  12.816   3.701  1.00 49.11     0.037 C 
ENDBRANCH  25  28
ENDBRANCH  24  25
ENDBRANCH  23  24
ENDBRANCH  21  23
ENDBRANCH   6  20
TORSDOF 7
