REMARK  5 active torsions:
REMARK  status: ('A' for Active; 'I' for Inactive)
REMARK       I    between atoms: N1_1  and  C25_25 
REMARK       I    between atoms: N5_5  and  C6_6 
REMARK    1  A    between atoms: C6_6  and  C7_7 
REMARK    2  A    between atoms: N17_17  and  C24_24 
REMARK    3  A    between atoms: C25_25  and  C20_32 
REMARK    4  A    between atoms: C27_27  and  C20_32 
REMARK    5  A    between atoms: C20_32  and  O34_35 
ROOT
HETATM    1  N1    D T 404       3.477  11.764   1.660  1.00 17.40    -0.308 N 
HETATM    2  N2    D T 404       2.805   9.067   3.855  1.00 15.80    -0.149 NA
HETATM    3  C3    D T 404       5.111   9.320   3.733  1.00 20.99     0.186 A 
HETATM    4  N4    D T 404       3.991   8.617   4.262  1.00 14.98    -0.129 NA
HETATM    5  N5    D T 404       6.290   9.015   4.001  1.00 14.25    -0.187 NA
HETATM    6  C6    D T 404       7.429   9.466   3.474  1.00 20.91     0.281 C 
HETATM    7  O8    D T 404       7.419  10.334   2.572  1.00 20.64    -0.265 OA
HETATM    8  C13   D T 404       2.999   9.972   3.133  1.00 15.72     0.104 A 
HETATM    9  C14   D T 404       4.604  10.186   3.023  1.00 16.99     0.055 A 
HETATM   10  C15   D T 404       4.857  11.265   2.176  1.00 11.92     0.136 A 
HETATM   11  C16   D T 404       2.338  10.949   2.338  1.00 12.55     0.152 A 
HETATM   12  C25   D T 404       3.263  13.069   0.667  1.00 17.08     0.266 C 
HETATM   13  O26   D T 404       2.074  13.373   0.384  1.00 18.79    -0.269 OA
ENDROOT
BRANCH   6  14
HETATM   14  C7    D T 404       8.721   9.043   3.840  1.00 20.72     0.058 A 
HETATM   15  C9    D T 404       8.995   8.585   5.153  1.00 20.76     0.006 A 
HETATM   16  C10   D T 404      10.295   8.172   5.513  1.00 23.27     0.017 A 
HETATM   17  C24   D T 404      11.356   8.191   4.585  1.00 27.37     0.056 A 
HETATM   18  C11   D T 404      11.073   8.653   3.258  1.00 25.87     0.017 A 
HETATM   19  C12   D T 404       9.780   9.069   2.900  1.00 22.35     0.006 A 
BRANCH  17  20
HETATM   20  N17   D T 404      12.613   7.769   4.974  1.00 26.72    -0.344 N 
HETATM   21  C18   D T 404      13.540   7.140   4.058  1.00 27.97     0.137 C 
HETATM   22  C19   D T 404      13.520   5.575   4.258  1.00 27.41     0.274 C 
HETATM   23  N20   D T 404      13.664   5.184   5.713  1.00 25.74     0.143 N 
HETATM   24  C21   D T 404      12.699   5.916   6.582  1.00 25.73     0.274 C 
HETATM   25  C23   D T 404      13.562   3.687   5.937  1.00 22.56     0.286 C 
HETATM   26  C22   D T 404      12.850   7.452   6.376  1.00 25.35     0.137 C 
ENDBRANCH  17  20
ENDBRANCH   6  14
BRANCH  12  27
HETATM   27  C20   D T 404       4.265  13.779   0.178  1.00 16.20     0.216 C 
BRANCH  27  28
HETATM   28  C27   D T 404       5.001  13.043  -0.849  1.00 15.98     0.014 A 
HETATM   29  C28   D T 404       6.306  12.746  -0.716  1.00 17.50    -0.001 A 
HETATM   30  C31   D T 404       6.990  12.019  -1.724  1.00 22.04    -0.000 A 
HETATM   31  C35   D T 404       6.310  11.594  -2.888  1.00 17.01    -0.000 A 
HETATM   32  C33   D T 404       4.972  11.902  -3.037  1.00 16.34    -0.000 A 
HETATM   33  C29   D T 404       4.313  12.596  -2.061  1.00 14.11    -0.001 A 
ENDBRANCH  27  28
BRANCH  27  34
HETATM   34  O34   D T 404       3.834  15.081  -0.272  1.00 16.74    -0.340 OA
HETATM   35  C36   D T 404       4.908  16.069  -0.489  1.00 18.61     0.175 C 
ENDBRANCH  27  34
ENDBRANCH  12  27
TORSDOF 5
