REMARK  5 active torsions:
REMARK  status: ('A' for Active; 'I' for Inactive)
REMARK       I    between atoms: N1_1  and  C25_25 
REMARK       I    between atoms: N5_5  and  C6_6 
REMARK    1  A    between atoms: C6_6  and  C7_7 
REMARK    2  A    between atoms: N17_17  and  C24_24 
REMARK    3  A    between atoms: C25_25  and  C20_32 
REMARK    4  A    between atoms: C27_27  and  C20_32 
REMARK    5  A    between atoms: C20_32  and  O34_35 
ROOT
HETATM    1  N1    D T 404       5.985   1.100  -7.645  1.00 17.40    -0.308 N 
HETATM    2  N2    D T 404       3.416   1.288 -10.076  1.00 15.80    -0.149 NA
HETATM    3  C3    D T 404       3.997   3.462  -9.493  1.00 20.99     0.186 A 
HETATM    4  N4    D T 404       3.183   2.586 -10.268  1.00 14.98    -0.129 NA
HETATM    5  N5    D T 404       3.894   4.703  -9.543  1.00 14.25    -0.187 NA
HETATM    6  C6    D T 404       4.462   5.637  -8.779  1.00 20.91     0.281 C 
HETATM    7  O8    D T 404       5.239   5.321  -7.850  1.00 20.64    -0.265 OA
HETATM    8  C13   D T 404       4.275   1.197  -9.280  1.00 15.72     0.104 A 
HETATM    9  C14   D T 404       4.714   2.699  -8.848  1.00 16.99     0.055 A 
HETATM   10  C15   D T 404       5.742   2.614  -7.910  1.00 11.92     0.136 A 
HETATM   11  C16   D T 404       5.072   0.252  -8.577  1.00 12.55     0.152 A 
HETATM   12  C25   D T 404       7.155   0.499  -6.642  1.00 17.08     0.266 C 
HETATM   13  O26   D T 404       7.254  -0.755  -6.580  1.00 18.79    -0.269 OA
ENDROOT
BRANCH   6  14
HETATM   14  C7    D T 404       4.268   7.026  -8.909  1.00 20.72     0.058 A 
HETATM   15  C9    D T 404       3.970   7.606 -10.167  1.00 20.76     0.006 A 
HETATM   16  C10   D T 404       3.786   9.000 -10.289  1.00 23.27     0.017 A 
HETATM   17  C24   D T 404       3.884   9.855  -9.173  1.00 27.37     0.056 A 
HETATM   18  C11   D T 404       4.183   9.262  -7.902  1.00 25.87     0.017 A 
HETATM   19  C12   D T 404       4.370   7.875  -7.781  1.00 22.35     0.006 A 
BRANCH  17  20
HETATM   20  N17   D T 404       3.687  11.214  -9.332  1.00 26.72    -0.344 N 
HETATM   21  C18   D T 404       3.127  12.046  -8.290  1.00 27.97     0.137 C 
HETATM   22  C19   D T 404       1.598  12.316  -8.576  1.00 27.41     0.274 C 
HETATM   23  N20   D T 404       1.359  12.787  -9.994  1.00 25.74     0.143 N 
HETATM   24  C21   D T 404       2.011  11.892 -10.993  1.00 25.73     0.274 C 
HETATM   25  C23   D T 404      -0.112  12.972 -10.317  1.00 22.56     0.286 C 
HETATM   26  C22   D T 404       3.530  11.752 -10.677  1.00 25.35     0.137 C 
ENDBRANCH  17  20
ENDBRANCH   6  14
BRANCH  12  27
HETATM   27  C20   D T 404       7.961   1.266  -5.929  1.00 16.20     0.216 C 
BRANCH  27  28
HETATM   28  C27   D T 404       7.257   1.910  -4.821  1.00 15.98     0.014 A 
HETATM   29  C28   D T 404       7.169   3.247  -4.713  1.00 17.50    -0.001 A 
HETATM   30  C31   D T 404       6.469   3.843  -3.633  1.00 22.04    -0.000 A 
HETATM   31  C35   D T 404       5.849   3.038  -2.649  1.00 17.01    -0.000 A 
HETATM   32  C33   D T 404       5.942   1.665  -2.747  1.00 16.34    -0.000 A 
HETATM   33  C29   D T 404       6.611   1.092  -3.792  1.00 14.11    -0.001 A 
ENDBRANCH  27  28
BRANCH  27  34
HETATM   34  O34   D T 404       9.142   0.554  -5.500  1.00 16.74    -0.340 OA
HETATM   35  C36   D T 404      10.255   1.396  -5.023  1.00 18.61     0.175 C 
ENDBRANCH  27  34
ENDBRANCH  12  27
TORSDOF 5
