REMARK  5 active torsions:
REMARK  status: ('A' for Active; 'I' for Inactive)
REMARK       I    between atoms: N1_1  and  C25_25 
REMARK       I    between atoms: N5_5  and  C6_6 
REMARK    1  A    between atoms: C6_6  and  C7_7 
REMARK    2  A    between atoms: N17_17  and  C24_24 
REMARK    3  A    between atoms: C25_25  and  C20_32 
REMARK    4  A    between atoms: C27_27  and  C20_32 
REMARK    5  A    between atoms: C20_32  and  O34_35 
ROOT
HETATM    1  N1    D T 404      -4.464  -1.310  10.031  1.00 17.40    -0.308 N 
HETATM    2  N2    D T 404      -7.419  -3.201   9.548  1.00 15.80    -0.149 NA
HETATM    3  C3    D T 404      -5.729  -4.676  10.153  1.00 20.99     0.186 A 
HETATM    4  N4    D T 404      -7.090  -4.470   9.786  1.00 14.98    -0.129 NA
HETATM    5  N5    D T 404      -5.256  -5.804  10.392  1.00 14.25    -0.187 NA
HETATM    6  C6    D T 404      -3.990  -6.174  10.592  1.00 20.91     0.281 C 
HETATM    7  O8    D T 404      -3.064  -5.332  10.561  1.00 20.64    -0.265 OA
HETATM    8  C13   D T 404      -6.457  -2.549   9.713  1.00 15.72     0.104 A 
HETATM    9  C14   D T 404      -5.249  -3.544  10.143  1.00 16.99     0.055 A 
HETATM   10  C15   D T 404      -4.097  -2.787  10.354  1.00 11.92     0.136 A 
HETATM   11  C16   D T 404      -5.978  -1.210   9.686  1.00 12.55     0.152 A 
HETATM   12  C25   D T 404      -3.430  -0.030  10.192  1.00 17.08     0.266 C 
HETATM   13  O26   D T 404      -3.901   1.110   9.940  1.00 18.79    -0.269 OA
ENDROOT
BRANCH   6  14
HETATM   14  C7    D T 404      -3.553  -7.488  10.844  1.00 20.72     0.058 A 
HETATM   15  C9    D T 404      -4.393  -8.423  11.499  1.00 20.76     0.006 A 
HETATM   16  C10   D T 404      -3.943  -9.736  11.755  1.00 23.27     0.017 A 
HETATM   17  C24   D T 404      -2.658 -10.163  11.364  1.00 27.37     0.056 A 
HETATM   18  C11   D T 404      -1.814  -9.213  10.699  1.00 25.87     0.017 A 
HETATM   19  C12   D T 404      -2.259  -7.905  10.447  1.00 22.35     0.006 A 
BRANCH  17  20
HETATM   20  N17   D T 404      -2.259 -11.460  11.624  1.00 26.72    -0.344 N 
HETATM   21  C18   D T 404      -1.342 -12.178  10.766  1.00 27.97     0.137 C 
HETATM   22  C19   D T 404      -2.140 -13.162   9.824  1.00 27.41     0.274 C 
HETATM   23  N20   D T 404      -3.125 -14.014  10.595  1.00 25.74     0.143 N 
HETATM   24  C21   D T 404      -3.995 -13.191  11.483  1.00 25.73     0.274 C 
HETATM   25  C23   D T 404      -3.963 -14.907   9.700  1.00 22.56     0.286 C 
HETATM   26  C22   D T 404      -3.120 -12.316  12.429  1.00 25.35     0.137 C 
ENDBRANCH  17  20
ENDBRANCH   6  14
BRANCH  12  27
HETATM   27  C20   D T 404      -2.169  -0.160  10.566  1.00 16.20     0.216 C 
BRANCH  27  28
HETATM   28  C27   D T 404      -1.351  -0.765   9.514  1.00 15.98     0.014 A 
HETATM   29  C28   D T 404      -0.708  -1.931   9.694  1.00 17.50    -0.001 A 
HETATM   30  C31   D T 404       0.068  -2.500   8.650  1.00 22.04    -0.000 A 
HETATM   31  C35   D T 404       0.176  -1.847   7.400  1.00 17.01    -0.000 A 
HETATM   32  C33   D T 404      -0.475  -0.644   7.210  1.00 16.34    -0.000 A 
HETATM   33  C29   D T 404      -1.227  -0.102   8.214  1.00 14.11    -0.001 A 
ENDBRANCH  27  28
BRANCH  27  34
HETATM   34  O34   D T 404      -1.619   1.083  11.052  1.00 16.74    -0.340 OA
HETATM   35  C36   D T 404      -0.365   0.969  11.819  1.00 18.61     0.175 C 
ENDBRANCH  27  34
ENDBRANCH  12  27
TORSDOF 5
