REMARK  7 active torsions:
REMARK  status: ('A' for Active; 'I' for Inactive)
REMARK    1  A    between atoms: N3_2  and  C20_12 
REMARK    2  A    between atoms: C4_3  and  C5_4 
REMARK    3  A    between atoms: C13_9  and  N2_29 
REMARK    4  A    between atoms: C17_11  and  C19_33 
REMARK    5  A    between atoms: C20_12  and  C16_31 
REMARK    6  A    between atoms: C2_23  and  C3_24 
REMARK    7  A    between atoms: C9_25  and  C12_27 
REMARK       I    between atoms: C12_27  and  N2_29 
ROOT
HETATM    1  C12   D T 802       2.832  -3.126  -8.162  1.00 36.63     0.279 C 
HETATM    2  O1    D T 802       2.649  -2.395  -7.191  1.00 28.54    -0.265 OA
HETATM    3  N2    D T 802       2.061  -4.313  -8.607  1.00 30.48    -0.208 NA
ENDROOT
BRANCH   1   4
HETATM    4  C9    D T 802       4.009  -2.661  -8.959  1.00 39.24     0.059 A 
HETATM    5  C8    D T 802       4.460  -3.348 -10.065  1.00 38.85     0.004 A 
HETATM    6  C7    D T 802       5.545  -2.841 -10.744  1.00 38.31    -0.004 A 
HETATM    7  C6    D T 802       6.157  -1.673 -10.302  1.00 39.99    -0.014 A 
HETATM    8  C5    D T 802       5.687  -0.994  -9.169  1.00 37.28     0.038 A 
HETATM    9  C11   D T 802       7.336  -1.150 -11.065  1.00 36.14     0.032 C 
HETATM   10  C10   D T 802       4.594  -1.486  -8.484  1.00 38.91     0.013 A 
BRANCH   8  11
HETATM   11  C4    D T 802       6.299   0.261  -8.630  1.00 36.52    -0.058 C 
HETATM   12  C3    D T 802       6.729   1.299  -8.173  1.00 35.65    -0.039 C 
BRANCH  12  13
HETATM   13  C2    D T 802       7.184   2.616  -7.637  1.00 34.07     0.145 A 
HETATM   14  N82   D T 802       8.092   2.863  -6.645  1.00 35.67    -0.203 N 
HETATM   15  N81   D T 802       8.843   2.050  -5.830  1.00 35.29    -0.162 NA
HETATM   16  C84   D T 802       8.185   4.236  -6.524  1.00 34.05     0.165 A 
HETATM   17  C83   D T 802       9.665   2.585  -4.915  1.00 37.33     0.121 A 
HETATM   18  C82   D T 802       9.774   3.938  -4.770  1.00 38.88     0.026 A 
HETATM   19  C81   D T 802       9.039   4.793  -5.567  1.00 36.88     0.041 A 
HETATM   20  N1    D T 802       7.374   4.787  -7.406  1.00 28.39    -0.223 NA
HETATM   21  C1    D T 802       6.750   3.851  -8.100  1.00 31.93     0.128 A 
ENDBRANCH  12  13
ENDBRANCH   8  11
ENDBRANCH   1   4
BRANCH   3  22
HETATM   22  C13   D T 802       0.900  -4.893  -7.911  1.00 25.44     0.085 A 
HETATM   23  C14   D T 802       0.766  -6.275  -7.824  1.00 31.06     0.019 A 
HETATM   24  C15   D T 802      -0.304  -6.873  -7.158  1.00 31.55    -0.001 A 
HETATM   25  C16   D T 802      -1.257  -6.101  -6.558  1.00 34.66     0.015 A 
HETATM   26  C17   D T 802      -1.162  -4.693  -6.620  1.00 33.80     0.071 A 
HETATM   27  C18   D T 802      -0.079  -4.079  -7.291  1.00 29.18     0.023 A 
BRANCH  25  28
HETATM   28  C20   D T 802      -2.388  -6.845  -5.868  1.00 35.75     0.277 C 
BRANCH  28  29
HETATM   29  N3    D T 802      -2.086  -8.222  -5.602  1.00 36.89     0.145 N 
HETATM   30  C21   D T 802      -1.430  -8.380  -4.314  1.00 44.86     0.274 C 
HETATM   31  C22   D T 802      -1.031  -9.784  -4.060  1.00 44.44     0.133 C 
HETATM   32  N4    D T 802      -2.238 -10.545  -4.076  1.00 40.34    -0.364 N 
HETATM   33  C23   D T 802      -3.007 -10.515  -5.322  1.00 39.95     0.133 C 
HETATM   34  C25   D T 802      -2.232 -11.783  -3.371  1.00 37.53     0.121 C 
HETATM   35  C24   D T 802      -3.188  -9.132  -5.926  1.00 39.71     0.274 C 
ENDBRANCH  28  29
ENDBRANCH  25  28
BRANCH  26  36
HETATM   36  C19   D T 802      -2.211  -3.853  -5.952  1.00 33.51     0.419 C 
HETATM   37  F1    D T 802      -3.359  -4.015  -6.601  1.00 36.24    -0.166 F 
HETATM   38  F2    D T 802      -1.816  -2.572  -5.948  1.00 30.68    -0.166 F 
HETATM   39  F3    D T 802      -2.377  -4.245  -4.706  1.00 35.27    -0.166 F 
ENDBRANCH  26  36
ENDBRANCH   3  22
TORSDOF 7
