REMARK  7 active torsions:
REMARK  status: ('A' for Active; 'I' for Inactive)
REMARK    1  A    between atoms: N3_2  and  C20_12 
REMARK    2  A    between atoms: C4_3  and  C5_4 
REMARK    3  A    between atoms: C13_9  and  N2_29 
REMARK    4  A    between atoms: C17_11  and  C19_33 
REMARK    5  A    between atoms: C20_12  and  C16_31 
REMARK    6  A    between atoms: C2_23  and  C3_24 
REMARK    7  A    between atoms: C9_25  and  C12_27 
REMARK       I    between atoms: C12_27  and  N2_29 
ROOT
HETATM    1  C12   D T 802      -5.815   6.672  -1.467  1.00 36.63     0.279 C 
HETATM    2  O1    D T 802      -6.119   5.559  -1.044  1.00 28.54    -0.265 OA
HETATM    3  N2    D T 802      -5.137   7.793  -0.771  1.00 30.48    -0.208 NA
ENDROOT
BRANCH   1   4
HETATM    4  C9    D T 802      -6.207   6.816  -2.903  1.00 39.24     0.059 A 
HETATM    5  C8    D T 802      -6.030   7.996  -3.594  1.00 38.85     0.004 A 
HETATM    6  C7    D T 802      -6.411   8.035  -4.916  1.00 38.31    -0.004 A 
HETATM    7  C6    D T 802      -6.966   6.907  -5.513  1.00 39.99    -0.014 A 
HETATM    8  C5    D T 802      -7.145   5.720  -4.789  1.00 37.28     0.038 A 
HETATM    9  C11   D T 802      -7.370   6.986  -6.954  1.00 36.14     0.032 C 
HETATM   10  C10   D T 802      -6.758   5.664  -3.465  1.00 38.91     0.013 A 
BRANCH   8  11
HETATM   11  C4    D T 802      -7.741   4.472  -5.361  1.00 36.52    -0.058 C 
HETATM   12  C3    D T 802      -8.181   3.423  -5.782  1.00 35.65    -0.039 C 
BRANCH  12  13
HETATM   13  C2    D T 802      -8.640   2.097  -6.292  1.00 34.07     0.145 A 
HETATM   14  N82   D T 802      -9.902   1.569  -6.274  1.00 35.67    -0.203 N 
HETATM   15  N81   D T 802     -11.108   2.025  -5.799  1.00 35.29    -0.162 NA
HETATM   16  C84   D T 802      -9.822   0.327  -6.874  1.00 34.05     0.165 A 
HETATM   17  C83   D T 802     -12.209   1.268  -5.914  1.00 37.33     0.121 A 
HETATM   18  C82   D T 802     -12.159   0.035  -6.499  1.00 38.88     0.026 A 
HETATM   19  C81   D T 802     -10.969  -0.463  -6.990  1.00 36.88     0.041 A 
HETATM   20  N1    D T 802      -8.571   0.122  -7.240  1.00 28.39    -0.223 NA
HETATM   21  C1    D T 802      -7.822   1.160  -6.911  1.00 31.93     0.128 A 
ENDBRANCH  12  13
ENDBRANCH   8  11
ENDBRANCH   1   4
BRANCH   3  22
HETATM   22  C13   D T 802      -4.718   7.798   0.641  1.00 25.44     0.085 A 
HETATM   23  C14   D T 802      -4.888   8.945   1.409  1.00 31.06     0.019 A 
HETATM   24  C15   D T 802      -4.526   8.994   2.755  1.00 31.55    -0.001 A 
HETATM   25  C16   D T 802      -3.993   7.893   3.364  1.00 34.66     0.015 A 
HETATM   26  C17   D T 802      -3.802   6.705   2.623  1.00 33.80     0.071 A 
HETATM   27  C18   D T 802      -4.169   6.646   1.259  1.00 29.18     0.023 A 
BRANCH  25  28
HETATM   28  C20   D T 802      -3.621   8.049   4.828  1.00 35.75     0.277 C 
BRANCH  28  29
HETATM   29  N3    D T 802      -4.242   9.179   5.457  1.00 36.89     0.145 N 
HETATM   30  C21   D T 802      -5.543   8.830   6.006  1.00 44.86     0.274 C 
HETATM   31  C22   D T 802      -6.237  10.005   6.582  1.00 44.44     0.133 C 
HETATM   32  N4    D T 802      -5.394  10.487   7.627  1.00 40.34    -0.364 N 
HETATM   33  C23   D T 802      -4.049  10.910   7.232  1.00 39.95     0.133 C 
HETATM   34  C25   D T 802      -6.014  11.247   8.660  1.00 37.53     0.121 C 
HETATM   35  C24   D T 802      -3.326   9.949   6.303  1.00 39.71     0.274 C 
ENDBRANCH  28  29
ENDBRANCH  25  28
BRANCH  26  36
HETATM   36  C19   D T 802      -3.224   5.498   3.302  1.00 33.51     0.419 C 
HETATM   37  F1    D T 802      -1.958   5.756   3.616  1.00 36.24    -0.166 F 
HETATM   38  F2    D T 802      -3.330   4.439   2.489  1.00 30.68    -0.166 F 
HETATM   39  F3    D T 802      -3.885   5.244   4.412  1.00 35.27    -0.166 F 
ENDBRANCH  26  36
ENDBRANCH   3  22
TORSDOF 7
