REMARK  7 active torsions:
REMARK  status: ('A' for Active; 'I' for Inactive)
REMARK    1  A    between atoms: N3_2  and  C20_12 
REMARK    2  A    between atoms: C4_3  and  C5_4 
REMARK    3  A    between atoms: C13_9  and  N2_29 
REMARK    4  A    between atoms: C17_11  and  C19_33 
REMARK    5  A    between atoms: C20_12  and  C16_31 
REMARK    6  A    between atoms: C2_23  and  C3_24 
REMARK    7  A    between atoms: C9_25  and  C12_27 
REMARK       I    between atoms: C12_27  and  N2_29 
ROOT
HETATM    1  C12   D T 802      -1.710   0.960  -3.460  1.00 36.63     0.279 C 
HETATM    2  O1    D T 802      -2.180   0.176  -2.638  1.00 28.54    -0.265 OA
HETATM    3  N2    D T 802      -1.339   2.387  -3.297  1.00 30.48    -0.208 NA
ENDROOT
BRANCH   1   4
HETATM    4  C9    D T 802      -1.497   0.281  -4.776  1.00 39.24     0.059 A 
HETATM    5  C8    D T 802      -1.036   0.961  -5.883  1.00 38.85     0.004 A 
HETATM    6  C7    D T 802      -0.862   0.253  -7.050  1.00 38.31    -0.004 A 
HETATM    7  C6    D T 802      -1.158  -1.105  -7.091  1.00 39.99    -0.014 A 
HETATM    8  C5    D T 802      -1.634  -1.775  -5.954  1.00 37.28     0.038 A 
HETATM    9  C11   D T 802      -0.957  -1.843  -8.379  1.00 36.14     0.032 C 
HETATM   10  C10   D T 802      -1.805  -1.080  -4.774  1.00 38.91     0.013 A 
BRANCH   8  11
HETATM   11  C4    D T 802      -1.982  -3.231  -5.925  1.00 36.52    -0.058 C 
HETATM   12  C3    D T 802      -2.241  -4.412  -5.833  1.00 35.65    -0.039 C 
BRANCH  12  13
HETATM   13  C2    D T 802      -2.489  -5.875  -5.666  1.00 34.07     0.145 A 
HETATM   14  N82   D T 802      -3.665  -6.559  -5.801  1.00 35.67    -0.203 N 
HETATM   15  N81   D T 802      -4.951  -6.175  -6.098  1.00 35.29    -0.162 NA
HETATM   16  C84   D T 802      -3.380  -7.890  -5.564  1.00 34.05     0.165 A 
HETATM   17  C83   D T 802      -5.932  -7.087  -6.156  1.00 37.33     0.121 A 
HETATM   18  C82   D T 802      -5.681  -8.409  -5.922  1.00 38.88     0.026 A 
HETATM   19  C81   D T 802      -4.404  -8.840  -5.621  1.00 36.88     0.041 A 
HETATM   20  N1    D T 802      -2.092  -8.000  -5.304  1.00 28.39    -0.223 NA
HETATM   21  C1    D T 802      -1.513  -6.813  -5.354  1.00 31.93     0.128 A 
ENDBRANCH  12  13
ENDBRANCH   8  11
ENDBRANCH   1   4
BRANCH   3  22
HETATM   22  C13   D T 802      -1.513   3.184  -2.071  1.00 25.44     0.085 A 
HETATM   23  C14   D T 802      -1.949   4.503  -2.159  1.00 31.06     0.019 A 
HETATM   24  C15   D T 802      -2.149   5.292  -1.027  1.00 31.55    -0.001 A 
HETATM   25  C16   D T 802      -1.925   4.778   0.218  1.00 34.66     0.015 A 
HETATM   26  C17   D T 802      -1.481   3.443   0.357  1.00 33.80     0.071 A 
HETATM   27  C18   D T 802      -1.279   2.635  -0.786  1.00 29.18     0.023 A 
BRANCH  25  28
HETATM   28  C20   D T 802      -2.159   5.720   1.387  1.00 35.75     0.277 C 
BRANCH  28  29
HETATM   29  N3    D T 802      -2.955   6.864   1.046  1.00 36.89     0.145 N 
HETATM   30  C21   D T 802      -4.373   6.589   1.208  1.00 44.86     0.274 C 
HETATM   31  C22   D T 802      -5.214   7.730   0.778  1.00 44.44     0.133 C 
HETATM   32  N4    D T 802      -4.844   8.828   1.610  1.00 40.34    -0.364 N 
HETATM   33  C23   D T 802      -3.444   9.251   1.540  1.00 39.95     0.133 C 
HETATM   34  C25   D T 802      -5.806   9.865   1.780  1.00 37.53     0.121 C 
HETATM   35  C24   D T 802      -2.432   8.118   1.595  1.00 39.71     0.274 C 
ENDBRANCH  28  29
ENDBRANCH  25  28
BRANCH  26  36
HETATM   36  C19   D T 802      -1.245   2.884   1.728  1.00 33.51     0.419 C 
HETATM   37  F1    D T 802      -0.202   3.509   2.266  1.00 36.24    -0.166 F 
HETATM   38  F2    D T 802      -1.043   1.562   1.640  1.00 30.68    -0.166 F 
HETATM   39  F3    D T 802      -2.297   3.097   2.491  1.00 35.27    -0.166 F 
ENDBRANCH  26  36
ENDBRANCH   3  22
TORSDOF 7
