REMARK  8 active torsions:
REMARK  status: ('A' for Active; 'I' for Inactive)
REMARK       I    between atoms: N1_3  and  C1_4 
REMARK    1  A    between atoms: C1_4  and  C2_5 
REMARK    2  A    between atoms: C2_5  and  C3_6 
REMARK    3  A    between atoms: C3_6  and  C4_7 
REMARK    4  A    between atoms: C4_7  and  C5_8 
REMARK    5  A    between atoms: C5_8  and  C6_9 
REMARK    6  A    between atoms: C6_9  and  C7_10 
REMARK    7  A    between atoms: C7_10  and  C8_11 
REMARK       I    between atoms: C8_11  and  N2_13 
REMARK    8  A    between atoms: N2_13  and  C9_14 
ROOT
HETATM    1  C7    D T 709      -1.039   2.764 -13.615  1.00 18.21     0.090 C 
ENDROOT
BRANCH   1   2
HETATM    2  C6    D T 709      -0.655   2.234 -12.228  1.00 17.15     0.010 C 
BRANCH   2   3
HETATM    3  C5    D T 709       0.185   3.274 -11.485  1.00 15.63     0.001 C 
BRANCH   3   4
HETATM    4  C4    D T 709       0.656   2.836 -10.105  1.00 16.20     0.001 C 
BRANCH   4   5
HETATM    5  C3    D T 709      -0.444   2.524  -9.165  1.00 14.61     0.010 C 
BRANCH   5   6
HETATM    6  C2    D T 709      -0.054   2.243  -7.683  1.00 13.57     0.092 C 
BRANCH   6   7
HETATM    7  C1    D T 709       0.600   0.882  -7.534  1.00 14.38     0.281 C 
HETATM    8  O2    D T 709      -0.086  -0.173  -7.597  1.00 12.30    -0.268 OA
HETATM    9  N1    D T 709       1.848   0.862  -7.255  1.00 13.37    -0.058 NA
HETATM   10  O1    D T 709       2.489  -0.377  -7.076  1.00 12.94    -0.058 OA
ENDBRANCH   6   7
ENDBRANCH   5   6
ENDBRANCH   4   5
ENDBRANCH   3   4
ENDBRANCH   2   3
ENDBRANCH   1   2
BRANCH   1  11
HETATM   11  C8    D T 709      -1.725   1.648 -14.393  1.00 17.22     0.256 C 
HETATM   12  O3    D T 709      -1.065   0.671 -14.795  1.00 17.18    -0.270 OA
HETATM   13  N2    D T 709      -3.027   1.856 -14.589  1.00 15.58    -0.212 NA
BRANCH  13  14
HETATM   14  C9    D T 709      -3.931   1.027 -15.125  1.00 14.68     0.084 A 
HETATM   15  C10   D T 709      -3.671  -0.171 -15.762  1.00 14.14     0.019 A 
HETATM   16  C11   D T 709      -4.677  -0.978 -16.228  1.00 14.33     0.002 A 
HETATM   17  C12   D T 709      -5.992  -0.697 -16.114  1.00 14.18     0.000 A 
HETATM   18  C13   D T 709      -6.301   0.536 -15.507  1.00 14.54     0.002 A 
HETATM   19  C14   D T 709      -5.270   1.395 -15.091  1.00 15.02     0.019 A 
ENDBRANCH  13  14
ENDBRANCH   1  11
TORSDOF 8
