REMARK  10 active torsions:
REMARK  status: ('A' for Active; 'I' for Inactive)
REMARK    1  A    between atoms: C1_1  and  C21_25 
REMARK    2  A    between atoms: N1_14  and  C13_15 
REMARK    3  A    between atoms: C13_15  and  C14_16 
REMARK    4  A    between atoms: C14_16  and  C15_17 
REMARK    5  A    between atoms: C15_17  and  N2_18 
REMARK    6  A    between atoms: C1_29  and  C21_53 
REMARK    7  A    between atoms: N1_42  and  C13_43 
REMARK    8  A    between atoms: C13_43  and  C14_44 
REMARK    9  A    between atoms: C14_44  and  C15_45 
REMARK   10  A    between atoms: C15_45  and  N2_46 
ROOT
HETATM    1  C1    D T 203     -15.845  -6.550  10.002  1.00 31.24     0.073 A 
HETATM    2  C2    D T 203     -15.377  -5.328  10.446  1.00 29.52     0.004 A 
HETATM    3  C3    D T 203     -15.722  -4.150   9.791  1.00 31.64     0.008 A 
HETATM    4  C4    D T 203     -16.550  -4.207   8.673  1.00 32.35     0.045 A 
HETATM    5  C5    D T 203     -17.008  -5.434   8.234  1.00 27.55     0.066 A 
HETATM    6  C6    D T 203     -16.666  -6.624   8.886  1.00 28.26     0.022 A 
HETATM    7  S     D T 203     -17.032  -2.823   7.838  1.00 46.57    -0.084 SA
HETATM    8  C7    D T 203     -18.587  -2.919   7.241  1.00 54.54     0.045 A 
HETATM    9  C8    D T 203     -19.432  -1.807   7.175  1.00 55.49     0.008 A 
HETATM   10  C9    D T 203     -20.722  -1.973   6.687  1.00 51.42     0.001 A 
HETATM   11  C10   D T 203     -21.152  -3.223   6.256  1.00 49.41     0.002 A 
HETATM   12  C11   D T 203     -20.317  -4.330   6.313  1.00 52.67     0.018 A 
HETATM   13  C12   D T 203     -19.025  -4.159   6.814  1.00 54.53     0.066 A 
HETATM   14  N1    D T 203     -17.966  -5.397   6.926  1.00 62.60    -0.327 N 
ENDROOT
BRANCH  14  15
HETATM   15  C13   D T 203     -18.421  -6.690   6.456  1.00 67.98     0.108 C 
BRANCH  15  16
HETATM   16  C14   D T 203     -18.096  -6.851   4.969  1.00 73.94     0.060 C 
BRANCH  16  17
HETATM   17  C15   D T 203     -17.331  -5.655   4.391  1.00 76.78     0.252 C 
BRANCH  17  18
HETATM   18  N2    D T 203     -17.042  -5.909   2.990  1.00 78.95     0.141 N 
HETATM   19  C16   D T 203     -17.264  -4.730   2.160  1.00 79.86     0.285 C 
HETATM   20  C17   D T 203     -16.671  -4.779   0.742  1.00 78.05     0.285 C 
HETATM   21  N3    D T 203     -15.608  -5.750   0.546  1.00 74.54     0.143 N 
HETATM   22  C18   D T 203     -14.867  -5.968   1.768  1.00 73.58     0.285 C 
HETATM   23  C20   D T 203     -16.139  -7.014   0.055  1.00 70.39     0.285 C 
HETATM   24  C19   D T 203     -15.766  -6.591   2.829  1.00 76.99     0.285 C 
ENDBRANCH  17  18
ENDBRANCH  16  17
ENDBRANCH  15  16
ENDBRANCH  14  15
BRANCH   1  25
HETATM   25  C21   D T 203     -15.408  -7.811  10.751  1.00 34.94     0.419 C 
HETATM   26  F1    D T 203     -15.034  -7.486  12.010  1.00 43.95    -0.166 F 
HETATM   27  F2    D T 203     -14.320  -8.344  10.137  1.00 34.86    -0.166 F 
HETATM   28  F3    D T 203     -16.398  -8.747  10.749  1.00 34.91    -0.166 F 
ENDBRANCH   1  25
TORSDOF 10
