REMARK  10 active torsions:
REMARK  status: ('A' for Active; 'I' for Inactive)
REMARK    1  A    between atoms: C1_1  and  C21_25 
REMARK    2  A    between atoms: N1_14  and  C13_15 
REMARK    3  A    between atoms: C13_15  and  C14_16 
REMARK    4  A    between atoms: C14_16  and  C15_17 
REMARK    5  A    between atoms: C15_17  and  N2_18 
REMARK    6  A    between atoms: C1_29  and  C21_53 
REMARK    7  A    between atoms: N1_42  and  C13_43 
REMARK    8  A    between atoms: C13_43  and  C14_44 
REMARK    9  A    between atoms: C14_44  and  C15_45 
REMARK   10  A    between atoms: C15_45  and  N2_46 
ROOT
HETATM    1  C1    D T 203     -13.278 -13.657   2.593  1.00 31.24     0.073 A 
HETATM    2  C2    D T 203     -11.977 -13.781   2.145  1.00 29.52     0.004 A 
HETATM    3  C3    D T 203     -11.090 -14.657   2.762  1.00 31.64     0.008 A 
HETATM    4  C4    D T 203     -11.521 -15.417   3.846  1.00 32.35     0.045 A 
HETATM    5  C5    D T 203     -12.822 -15.281   4.290  1.00 27.55     0.066 A 
HETATM    6  C6    D T 203     -13.722 -14.403   3.676  1.00 28.26     0.022 A 
HETATM    7  S     D T 203     -10.513 -16.517   4.633  1.00 46.57    -0.084 SA
HETATM    8  C7    D T 203     -11.312 -17.880   5.167  1.00 54.54     0.045 A 
HETATM    9  C8    D T 203     -10.711 -19.143   5.176  1.00 55.49     0.008 A 
HETATM   10  C9    D T 203     -11.450 -20.234   5.614  1.00 51.42     0.001 A 
HETATM   11  C10   D T 203     -12.760 -20.064   6.052  1.00 49.41     0.002 A 
HETATM   12  C11   D T 203     -13.360 -18.813   6.051  1.00 52.67     0.018 A 
HETATM   13  C12   D T 203     -12.616 -17.721   5.600  1.00 54.53     0.066 A 
HETATM   14  N1    D T 203     -13.230 -16.209   5.556  1.00 62.60    -0.327 N 
ENDROOT
BRANCH  14  15
HETATM   15  C13   D T 203     -14.589 -16.042   6.032  1.00 67.98     0.108 C 
BRANCH  15  16
HETATM   16  C14   D T 203     -14.585 -15.748   7.534  1.00 73.94     0.060 C 
BRANCH  16  17
HETATM   17  C15   D T 203     -13.172 -15.643   8.120  1.00 76.78     0.252 C 
BRANCH  17  18
HETATM   18  N2    D T 203     -13.267 -15.334   9.536  1.00 78.95     0.141 N 
HETATM   19  C16   D T 203     -12.323 -16.109  10.333  1.00 79.86     0.285 C 
HETATM   20  C17   D T 203     -12.096 -15.625  11.775  1.00 78.05     0.285 C 
HETATM   21  N3    D T 203     -12.473 -14.245  12.034  1.00 74.54     0.143 N 
HETATM   22  C18   D T 203     -12.324 -13.431  10.847  1.00 73.58     0.285 C 
HETATM   23  C20   D T 203     -13.839 -14.160  12.527  1.00 70.39     0.285 C 
HETATM   24  C19   D T 203     -13.289 -13.896   9.763  1.00 76.99     0.285 C 
ENDBRANCH  17  18
ENDBRANCH  16  17
ENDBRANCH  15  16
ENDBRANCH  14  15
BRANCH   1  25
HETATM   25  C21   D T 203     -14.198 -12.658   1.888  1.00 34.94     0.419 C 
HETATM   26  F1    D T 203     -13.736 -12.417   0.639  1.00 43.95    -0.166 F 
HETATM   27  F2    D T 203     -14.174 -11.475   2.557  1.00 34.86    -0.166 F 
HETATM   28  F3    D T 203     -15.483 -13.108   1.868  1.00 34.91    -0.166 F 
ENDBRANCH   1  25
TORSDOF 10
