REMARK  9 active torsions:
REMARK  status: ('A' for Active; 'I' for Inactive)
REMARK    1  A    between atoms: C13_2  and  C14_3 
REMARK       I    between atoms: C13_2  and  N12_12 
REMARK    2  A    between atoms: C17_6  and  N20_7 
REMARK    3  A    between atoms: N12_12  and  C10_13 
REMARK    4  A    between atoms: C10_13  and  C9_14 
REMARK    5  A    between atoms: C9_14  and  C8_15 
REMARK    6  A    between atoms: C8_15  and  C7_16 
REMARK    7  A    between atoms: C7_16  and  C6_17 
REMARK    8  A    between atoms: C6_17  and  C5_18 
REMARK    9  A    between atoms: C5_18  and  C1_19 
REMARK       I    between atoms: C1_19  and  N3_21 
ROOT
HETATM    1  O23   D T 701      -1.126   0.840 -14.969  1.00 19.82    -0.266 OA
HETATM    2  C13   D T 701      -2.166   1.512 -14.712  1.00 19.55     0.275 C 
HETATM    3  N12   D T 701      -2.162   2.637 -13.980  1.00 19.95    -0.234 NA
ENDROOT
BRANCH   2   4
HETATM    4  C14   D T 701      -3.503   0.955 -15.085  1.00 17.56     0.058 A 
HETATM    5  C15   D T 701      -4.694   1.662 -14.995  1.00 18.38     0.006 A 
HETATM    6  C16   D T 701      -5.904   1.018 -15.279  1.00 18.81     0.017 A 
HETATM    7  C17   D T 701      -5.936  -0.289 -15.760  1.00 20.59     0.056 A 
HETATM    8  C18   D T 701      -4.726  -0.961 -15.879  1.00 18.24     0.017 A 
HETATM    9  C19   D T 701      -3.550  -0.335 -15.516  1.00 17.45     0.006 A 
BRANCH   7  10
HETATM   10  N20   D T 701      -7.154  -0.937 -15.964  1.00 20.92    -0.344 N 
HETATM   11  C22   D T 701      -8.406  -0.187 -15.916  1.00 23.07     0.126 C 
HETATM   12  C21   D T 701      -7.256  -2.392 -15.957  1.00 21.40     0.126 C 
ENDBRANCH   7  10
ENDBRANCH   2   4
BRANCH   3  13
HETATM   13  C10   D T 701      -0.924   3.175 -13.409  1.00 21.02     0.129 C 
BRANCH  13  14
HETATM   14  C9    D T 701      -0.679   2.576 -12.002  1.00 19.12     0.026 C 
BRANCH  14  15
HETATM   15  C8    D T 701       0.488   3.251 -11.228  1.00 19.24     0.002 C 
BRANCH  15  16
HETATM   16  C7    D T 701       0.708   2.690  -9.835  1.00 17.46     0.001 C 
BRANCH  16  17
HETATM   17  C6    D T 701      -0.509   2.649  -8.912  1.00 16.75     0.010 C 
BRANCH  17  18
HETATM   18  C5    D T 701      -0.054   2.299  -7.488  1.00 15.35     0.092 C 
BRANCH  18  19
HETATM   19  C1    D T 701       0.479   0.876  -7.447  1.00 16.38     0.281 C 
HETATM   20  O2    D T 701      -0.192  -0.191  -7.641  1.00 15.69    -0.268 OA
HETATM   21  N3    D T 701       1.752   0.807  -7.140  1.00 16.86    -0.058 NA
HETATM   22  O4    D T 701       2.350  -0.431  -7.068  1.00 14.83    -0.058 OA
ENDBRANCH  18  19
ENDBRANCH  17  18
ENDBRANCH  16  17
ENDBRANCH  15  16
ENDBRANCH  14  15
ENDBRANCH  13  14
ENDBRANCH   3  13
TORSDOF 9
