REMARK  7 active torsions:
REMARK  status: ('A' for Active; 'I' for Inactive)
REMARK    1  A    between atoms: S1@A_2  and  C5@A_7 
REMARK    2  A    between atoms: C2@A_17  and  N1@A_19 
REMARK    3  A    between atoms: C2@B_18  and  N1@B_20 
REMARK    4  A    between atoms: N1@A_19  and  C7@A_21 
REMARK    5  A    between atoms: N1@B_20  and  C7@B_22 
REMARK    6  A    between atoms: C12@A_37  and  C13@A_41 
REMARK    7  A    between atoms: C12@B_38  and  C13@B_42 
ROOT
HETATM    1  C7 B  D T1001       3.835  -1.368 -15.359  0.30 60.59     0.150 A 
HETATM    2  C8 B  D T1001       4.912  -0.847 -16.113  0.30 64.17     0.078 A 
HETATM    3  C9 B  D T1001       4.818  -0.934 -17.532  0.30 52.45     0.053 A 
HETATM    4  C10B  D T1001       5.928  -0.388 -18.409  0.30 62.21     0.071 C 
HETATM    5  N2 B  D T1001       2.776  -1.938 -16.024  0.30 46.48    -0.041 N 
HETATM    6  C11B  D T1001       2.731  -1.998 -17.323  0.30 46.47     0.753 A 
HETATM    7  N5 B  D T1001       3.734  -1.506 -18.099  0.30 46.47    -0.066 NA
HETATM    8  N3 B  D T1001       1.629  -2.511 -15.527  0.30 46.47    -0.134 NA
HETATM    9  C12B  D T1001       0.873  -2.938 -16.537  0.30 46.47     0.177 A 
HETATM   10  N4 B  D T1001       1.529  -2.630 -17.671  0.30 46.47    -0.043 NA
ENDROOT
BRANCH   1  11
HETATM   11  N1 B  D T1001       3.749  -1.385 -13.947  0.30 52.78    -0.340 N 
HETATM   12  H5 B  D T1001       3.007  -1.769 -13.580  0.30 63.34     0.167 HD
BRANCH  11  13
HETATM   13  C2 B  D T1001       4.727  -0.853 -13.038  0.30 46.96     0.033 A 
HETATM   14  C3 B  D T1001       5.055  -1.648 -11.926  0.30 46.47     0.030 A 
HETATM   15  C4 B  D T1001       5.996  -1.191 -11.012  0.30 46.47     0.014 A 
HETATM   16  C5 B  D T1001       6.576   0.047 -11.246  0.30 51.11    -0.026 A 
HETATM   17  C6 B  D T1001       6.262   0.849 -12.340  0.30 46.47     0.014 A 
HETATM   18  C1 B  D T1001       5.324   0.393 -13.256  0.30 46.47     0.030 A 
ENDBRANCH  11  13
ENDBRANCH   1  11
BRANCH   9  19
HETATM   19  C13B  D T1001      -0.475  -3.606 -16.427  0.30 46.48     0.052 C 
HETATM   20  C14B  D T1001      -1.466  -2.575 -16.911  0.30 46.47     0.026 C 
ENDBRANCH   9  19
TORSDOF 7
