REMARK  3 active torsions:
REMARK  status: ('A' for Active; 'I' for Inactive)
REMARK    1  A    between atoms: C7_8  and  C10_12 
REMARK    2  A    between atoms: N9_10  and  C1'_11 
REMARK    3  A    between atoms: C4'_19  and  C5'_21 
ROOT
HETATM    1  N1    D T 601       0.716   2.885   9.567  1.00 22.46    -0.210 NA
HETATM    2  C2    D T 601       1.852   3.021  10.329  1.00 17.33     0.201 A 
HETATM    3  N3    D T 601       2.742   4.027  10.041  1.00 21.38    -0.207 NA
HETATM    4  C4    D T 601       2.483   4.877   8.997  1.00 21.15     0.150 A 
HETATM    5  C5    D T 601       1.354   4.745   8.250  1.00 22.48     0.071 A 
HETATM    6  C6    D T 601       0.463   3.725   8.541  1.00 22.92     0.156 A 
HETATM    7  N6    D T 601      -0.796   3.159   8.112  1.00 23.12    -0.080 NA
HETATM    8  C7    D T 601       1.360   5.731   7.281  1.00 19.57     0.076 A 
HETATM    9  C8    D T 601       2.506   6.479   7.439  1.00 12.70     0.084 A 
HETATM   10  N9    D T 601       3.178   5.974   8.503  1.00 22.69    -0.287 N 
ENDROOT
BRANCH  10  11
HETATM   11  C1'   D T 601       4.490   6.392   9.031  1.00 23.36     0.240 C 
HETATM   12  C2'   D T 601       5.584   5.540   8.392  1.00 24.93     0.234 C 
HETATM   13  O2'   D T 601       6.711   5.536   9.251  1.00 35.12    -0.216 OA
HETATM   14  C3'   D T 601       5.865   6.348   7.143  1.00 25.54     0.216 C 
HETATM   15  O3'   D T 601       7.089   6.017   6.519  1.00 30.30    -0.218 OA
HETATM   16  C4'   D T 601       5.816   7.771   7.676  1.00 31.54     0.183 C 
HETATM   17  O4'   D T 601       4.736   7.732   8.651  1.00 29.87    -0.331 OA
BRANCH  16  18
HETATM   18  C5'   D T 601       5.560   8.861   6.666  1.00 31.76     0.214 C 
HETATM   19  O5'   D T 601       4.244   8.776   6.147  1.00 34.06    -0.218 OA
ENDBRANCH  16  18
ENDBRANCH  10  11
BRANCH   8  20
HETATM   20  C10   D T 601       0.392   6.119   6.130  1.00 29.97     0.268 C 
HETATM   21  N11   D T 601       0.548   7.429   5.464  1.00 35.69    -0.057 NA
HETATM   22  O12   D T 601      -0.491   5.339   5.777  1.00 30.21    -0.271 OA
ENDBRANCH   8  20
TORSDOF 3
