REMARK  3 active torsions:
REMARK  status: ('A' for Active; 'I' for Inactive)
REMARK    1  A    between atoms: C7_8  and  C10_12 
REMARK    2  A    between atoms: N9_10  and  C1'_11 
REMARK    3  A    between atoms: C4'_19  and  C5'_21 
ROOT
HETATM    1  N1    D T 601       3.989   9.089   4.278  1.00 22.46    -0.210 NA
HETATM    2  C2    D T 601       5.271   9.263   4.743  1.00 17.33     0.201 A 
HETATM    3  N3    D T 601       6.078  10.212   4.162  1.00 21.38    -0.207 NA
HETATM    4  C4    D T 601       5.590  10.969   3.128  1.00 21.15     0.150 A 
HETATM    5  C5    D T 601       4.318  10.800   2.676  1.00 22.48     0.071 A 
HETATM    6  C6    D T 601       3.511   9.838   3.260  1.00 22.92     0.156 A 
HETATM    7  N6    D T 601       2.184   9.271   3.189  1.00 23.12    -0.080 NA
HETATM    8  C7    D T 601       4.107  11.691   1.640  1.00 19.57     0.076 A 
HETATM    9  C8    D T 601       5.263  12.418   1.458  1.00 12.70     0.084 A 
HETATM   10  N9    D T 601       6.159  11.995   2.384  1.00 22.69    -0.287 N 
ENDROOT
BRANCH  10  11
HETATM   11  C1'   D T 601       7.560  12.422   2.554  1.00 23.36     0.240 C 
HETATM   12  C2'   D T 601       8.472  11.483   1.767  1.00 24.93     0.234 C 
HETATM   13  O2'   D T 601       9.767  11.526   2.341  1.00 35.12    -0.216 OA
HETATM   14  C3'   D T 601       8.463  12.163   0.414  1.00 25.54     0.216 C 
HETATM   15  O3'   D T 601       9.507  11.740  -0.438  1.00 30.30    -0.218 OA
HETATM   16  C4'   D T 601       8.547  13.630   0.804  1.00 31.54     0.183 C 
HETATM   17  O4'   D T 601       7.722  13.712   2.000  1.00 29.87    -0.331 OA
BRANCH  16  18
HETATM   18  C5'   D T 601       8.073  14.628  -0.222  1.00 31.76     0.214 C 
HETATM   19  O5'   D T 601       6.671  14.534  -0.414  1.00 34.06    -0.218 OA
ENDBRANCH  16  18
ENDBRANCH  10  11
BRANCH   8  20
HETATM   20  C10   D T 601       2.902  11.998   0.710  1.00 29.97     0.268 C 
HETATM   21  N11   D T 601       2.909  13.236  -0.098  1.00 35.69    -0.057 NA
HETATM   22  O12   D T 601       1.957  11.215   0.645  1.00 30.21    -0.271 OA
ENDBRANCH   8  20
TORSDOF 3
