REMARK  3 active torsions:
REMARK  status: ('A' for Active; 'I' for Inactive)
REMARK    1  A    between atoms: C7_8  and  C10_12 
REMARK    2  A    between atoms: N9_10  and  C1'_11 
REMARK    3  A    between atoms: C4'_19  and  C5'_21 
ROOT
HETATM    1  N1    D T 601      -0.978  -8.031  -5.132  1.00 22.46    -0.210 NA
HETATM    2  C2    D T 601      -1.716  -9.055  -5.677  1.00 17.33     0.201 A 
HETATM    3  N3    D T 601      -2.993  -8.808  -6.118  1.00 21.38    -0.207 NA
HETATM    4  C4    D T 601      -3.512  -7.544  -6.005  1.00 21.15     0.150 A 
HETATM    5  C5    D T 601      -2.777  -6.530  -5.471  1.00 22.48     0.071 A 
HETATM    6  C6    D T 601      -1.492  -6.786  -5.024  1.00 22.92     0.156 A 
HETATM    7  N6    D T 601      -0.349  -6.140  -4.419  1.00 23.12    -0.080 NA
HETATM    8  C7    D T 601      -3.550  -5.384  -5.487  1.00 19.57     0.076 A 
HETATM    9  C8    D T 601      -4.772  -5.698  -6.039  1.00 12.70     0.084 A 
HETATM   10  N9    D T 601      -4.739  -7.010  -6.379  1.00 22.69    -0.287 N 
ENDROOT
BRANCH  10  11
HETATM   11  C1'   D T 601      -5.826  -7.830  -6.946  1.00 23.36     0.240 C 
HETATM   12  C2'   D T 601      -6.585  -8.512  -5.810  1.00 24.93     0.234 C 
HETATM   13  O2'   D T 601      -7.221  -9.670  -6.325  1.00 35.12    -0.216 OA
HETATM   14  C3'   D T 601      -7.606  -7.443  -5.481  1.00 25.54     0.216 C 
HETATM   15  O3'   D T 601      -8.694  -7.917  -4.715  1.00 30.30    -0.218 OA
HETATM   16  C4'   D T 601      -7.999  -6.954  -6.865  1.00 31.54     0.183 C 
HETATM   17  O4'   D T 601      -6.747  -6.984  -7.606  1.00 29.87    -0.331 OA
BRANCH  16  18
HETATM   18  C5'   D T 601      -8.614  -5.579  -6.945  1.00 31.76     0.214 C 
HETATM   19  O5'   D T 601      -7.665  -4.577  -6.621  1.00 34.06    -0.218 OA
ENDBRANCH  16  18
ENDBRANCH  10  11
BRANCH   8  20
HETATM   20  C10   D T 601      -3.315  -3.920  -5.026  1.00 29.97     0.268 C 
HETATM   21  N11   D T 601      -4.248  -2.863  -5.472  1.00 35.69    -0.057 NA
HETATM   22  O12   D T 601      -2.366  -3.647  -4.294  1.00 30.21    -0.271 OA
ENDBRANCH   8  20
TORSDOF 3
