REMARK  3 active torsions:
REMARK  status: ('A' for Active; 'I' for Inactive)
REMARK    1  A    between atoms: C7_8  and  C10_12 
REMARK    2  A    between atoms: N9_10  and  C1'_11 
REMARK    3  A    between atoms: C4'_19  and  C5'_21 
ROOT
HETATM    1  N1    D T 601       3.798   2.756 -10.116  1.00 22.46    -0.210 NA
HETATM    2  C2    D T 601       4.161   4.067 -10.314  1.00 17.33     0.201 A 
HETATM    3  N3    D T 601       5.140   4.623  -9.526  1.00 21.38    -0.207 NA
HETATM    4  C4    D T 601       5.737   3.862  -8.555  1.00 21.15     0.150 A 
HETATM    5  C5    D T 601       5.381   2.562  -8.367  1.00 22.48     0.071 A 
HETATM    6  C6    D T 601       4.390   2.008  -9.160  1.00 22.92     0.156 A 
HETATM    7  N6    D T 601       3.669   0.775  -9.382  1.00 23.12    -0.080 NA
HETATM    8  C7    D T 601       6.143   2.052  -7.333  1.00 19.57     0.076 A 
HETATM    9  C8    D T 601       6.979   3.050  -6.884  1.00 12.70     0.084 A 
HETATM   10  N9    D T 601       6.750   4.147  -7.648  1.00 22.69    -0.287 N 
ENDROOT
BRANCH  10  11
HETATM   11  C1'   D T 601       7.350   5.487  -7.517  1.00 23.36     0.240 C 
HETATM   12  C2'   D T 601       6.455   6.356  -6.636  1.00 24.93     0.234 C 
HETATM   13  O2'   D T 601       6.701   7.717  -6.948  1.00 35.12    -0.216 OA
HETATM   14  C3'   D T 601       7.002   6.013  -5.267  1.00 25.54     0.216 C 
HETATM   15  O3'   D T 601       6.627   6.932  -4.262  1.00 30.30    -0.218 OA
HETATM   16  C4'   D T 601       8.499   5.973  -5.532  1.00 31.54     0.183 C 
HETATM   17  O4'   D T 601       8.595   5.375  -6.855  1.00 29.87    -0.331 OA
BRANCH  16  18
HETATM   18  C5'   D T 601       9.337   5.194  -4.550  1.00 31.76     0.214 C 
HETATM   19  O5'   D T 601       9.063   3.805  -4.636  1.00 34.06    -0.218 OA
ENDBRANCH  16  18
ENDBRANCH  10  11
BRANCH   8  20
HETATM   20  C10   D T 601       6.222   0.668  -6.632  1.00 29.97     0.268 C 
HETATM   21  N11   D T 601       7.373   0.366  -5.754  1.00 35.69    -0.057 NA
HETATM   22  O12   D T 601       5.332  -0.162  -6.802  1.00 30.21    -0.271 OA
ENDBRANCH   8  20
TORSDOF 3
