REMARK  3 active torsions:
REMARK  status: ('A' for Active; 'I' for Inactive)
REMARK    1  A    between atoms: C7_8  and  C10_12 
REMARK    2  A    between atoms: N9_10  and  C1'_11 
REMARK    3  A    between atoms: C4'_19  and  C5'_21 
ROOT
HETATM    1  N1    D T 601       7.241   3.766  -8.161  1.00 22.46    -0.210 NA
HETATM    2  C2    D T 601       8.400   4.351  -7.710  1.00 17.33     0.201 A 
HETATM    3  N3    D T 601       9.264   3.625  -6.927  1.00 21.38    -0.207 NA
HETATM    4  C4    D T 601       8.956   2.328  -6.607  1.00 21.15     0.150 A 
HETATM    5  C5    D T 601       7.811   1.748  -7.061  1.00 22.48     0.071 A 
HETATM    6  C6    D T 601       6.941   2.487  -7.845  1.00 22.92     0.156 A 
HETATM    7  N6    D T 601       5.681   2.388  -8.547  1.00 23.12    -0.080 NA
HETATM    8  C7    D T 601       7.768   0.451  -6.586  1.00 19.57     0.076 A 
HETATM    9  C8    D T 601       8.901   0.232  -5.834  1.00 12.70     0.084 A 
HETATM   10  N9    D T 601       9.638   1.369  -5.869  1.00 22.69    -0.287 N 
ENDROOT
BRANCH  10  11
HETATM   11  C1'   D T 601      10.904   1.654  -5.168  1.00 23.36     0.240 C 
HETATM   12  C2'   D T 601      10.598   2.320  -3.829  1.00 24.93     0.234 C 
HETATM   13  O2'   D T 601      11.734   3.068  -3.428  1.00 35.12    -0.216 OA
HETATM   14  C3'   D T 601      10.423   1.100  -2.950  1.00 25.54     0.216 C 
HETATM   15  O3'   D T 601      10.493   1.384  -1.568  1.00 30.30    -0.218 OA
HETATM   16  C4'   D T 601      11.542   0.197  -3.446  1.00 31.54     0.183 C 
HETATM   17  O4'   D T 601      11.559   0.434  -4.881  1.00 29.87    -0.331 OA
BRANCH  16  18
HETATM   18  C5'   D T 601      11.392  -1.277  -3.166  1.00 31.76     0.214 C 
HETATM   19  O5'   D T 601      10.319  -1.830  -3.910  1.00 34.06    -0.218 OA
ENDBRANCH  16  18
ENDBRANCH  10  11
BRANCH   8  20
HETATM   20  C10   D T 601       6.752  -0.715  -6.726  1.00 29.97     0.268 C 
HETATM   21  N11   D T 601       7.162  -2.082  -6.341  1.00 35.69    -0.057 NA
HETATM   22  O12   D T 601       5.618  -0.499  -7.148  1.00 30.21    -0.271 OA
ENDBRANCH   8  20
TORSDOF 3
