REMARK  7 active torsions:
REMARK  status: ('A' for Active; 'I' for Inactive)
REMARK    1  A    between atoms: N3_2  and  C20_12 
REMARK    2  A    between atoms: C4_3  and  C5_4 
REMARK    3  A    between atoms: C13_9  and  N2_29 
REMARK    4  A    between atoms: C17_11  and  C19_33 
REMARK    5  A    between atoms: C20_12  and  C16_31 
REMARK    6  A    between atoms: C2_23  and  C3_24 
REMARK    7  A    between atoms: C9_25  and  C12_27 
REMARK       I    between atoms: C12_27  and  N2_29 
ROOT
HETATM    1  C12   D T 801      -6.251   6.859  -1.298  1.00 44.92     0.279 C 
HETATM    2  O1    D T 801      -6.746   5.981  -0.616  1.00 47.76    -0.265 OA
HETATM    3  N2    D T 801      -5.402   7.763  -0.728  1.00 46.59    -0.208 NA
ENDROOT
BRANCH   1   4
HETATM    4  C9    D T 801      -6.559   6.901  -2.764  1.00 40.68     0.059 A 
HETATM    5  C8    D T 801      -6.310   8.032  -3.571  1.00 40.60     0.004 A 
HETATM    6  C7    D T 801      -6.586   8.021  -4.931  1.00 42.33    -0.004 A 
HETATM    7  C6    D T 801      -7.112   6.900  -5.550  1.00 44.57    -0.014 A 
HETATM    8  C5    D T 801      -7.369   5.755  -4.775  1.00 44.90     0.038 A 
HETATM    9  C11   D T 801      -7.398   6.936  -7.029  1.00 40.34     0.032 C 
HETATM   10  C10   D T 801      -7.088   5.765  -3.397  1.00 44.55     0.013 A 
BRANCH   8  11
HETATM   11  C4    D T 801      -7.913   4.537  -5.304  1.00 43.57    -0.058 C 
HETATM   12  C3    D T 801      -8.363   3.557  -5.777  1.00 44.10    -0.039 C 
BRANCH  12  13
HETATM   13  C2    D T 801      -8.882   2.329  -6.300  1.00 46.85     0.145 A 
HETATM   14  N82   D T 801     -10.171   1.851  -6.331  1.00 45.71    -0.203 N 
HETATM   15  N81   D T 801     -11.387   2.362  -5.856  1.00 48.41    -0.162 NA
HETATM   16  C84   D T 801     -10.119   0.630  -6.974  1.00 48.08     0.165 A 
HETATM   17  C83   D T 801     -12.495   1.678  -6.019  1.00 54.40     0.121 A 
HETATM   18  C82   D T 801     -12.478   0.430  -6.669  1.00 53.21     0.026 A 
HETATM   19  C81   D T 801     -11.311  -0.099  -7.148  1.00 48.83     0.041 A 
HETATM   20  N1    D T 801      -8.866   0.377  -7.321  1.00 46.84    -0.223 NA
HETATM   21  C1    D T 801      -8.099   1.382  -6.930  1.00 46.95     0.128 A 
ENDBRANCH  12  13
ENDBRANCH   8  11
ENDBRANCH   1   4
BRANCH   3  22
HETATM   22  C13   D T 801      -5.002   7.798   0.623  1.00 45.13     0.085 A 
HETATM   23  C14   D T 801      -5.012   8.996   1.334  1.00 45.97     0.019 A 
HETATM   24  C15   D T 801      -4.578   9.047   2.651  1.00 43.20    -0.001 A 
HETATM   25  C16   D T 801      -4.103   7.906   3.304  1.00 40.99     0.015 A 
HETATM   26  C17   D T 801      -4.061   6.694   2.578  1.00 44.10     0.071 A 
HETATM   27  C18   D T 801      -4.501   6.658   1.251  1.00 42.25     0.023 A 
BRANCH  25  28
HETATM   28  C20   D T 801      -3.629   8.012   4.752  1.00 39.15     0.277 C 
BRANCH  28  29
HETATM   29  N3    D T 801      -4.177   9.148   5.515  1.00 38.29     0.146 N 
HETATM   30  C21   D T 801      -3.324   9.459   6.682  1.00 41.73     0.286 C 
HETATM   31  C22   D T 801      -3.891  10.637   7.484  1.00 41.71     0.286 C 
HETATM   32  N4    D T 801      -5.282  10.349   7.866  1.00 48.22     0.143 N 
HETATM   33  C23   D T 801      -6.110  10.128   6.667  1.00 42.74     0.286 C 
HETATM   34  C25   D T 801      -5.833  11.415   8.714  1.00 47.13     0.285 C 
HETATM   35  C24   D T 801      -5.570   8.902   5.922  1.00 36.93     0.286 C 
ENDBRANCH  28  29
ENDBRANCH  25  28
BRANCH  26  36
HETATM   36  C19   D T 801      -3.559   5.402   3.194  1.00 42.98     0.419 C 
HETATM   37  F1    D T 801      -3.462   4.367   2.255  1.00 48.85    -0.166 F 
HETATM   38  F2    D T 801      -2.307   5.597   3.784  1.00 43.91    -0.166 F 
HETATM   39  F3    D T 801      -4.467   5.015   4.175  1.00 45.50    -0.166 F 
ENDBRANCH  26  36
ENDBRANCH   3  22
TORSDOF 7
