REMARK  7 active torsions:
REMARK  status: ('A' for Active; 'I' for Inactive)
REMARK    1  A    between atoms: N3_2  and  C20_12 
REMARK    2  A    between atoms: C4_3  and  C5_4 
REMARK    3  A    between atoms: C13_9  and  N2_29 
REMARK    4  A    between atoms: C17_11  and  C19_33 
REMARK    5  A    between atoms: C20_12  and  C16_31 
REMARK    6  A    between atoms: C2_23  and  C3_24 
REMARK    7  A    between atoms: C9_25  and  C12_27 
REMARK       I    between atoms: C12_27  and  N2_29 
ROOT
HETATM    1  C12   D T 801       5.567  -3.811  -5.482  1.00 44.92     0.279 C 
HETATM    2  O1    D T 801       5.020  -3.094  -4.663  1.00 47.76    -0.265 OA
HETATM    3  N2    D T 801       5.654  -5.154  -5.254  1.00 46.59    -0.208 NA
ENDROOT
BRANCH   1   4
HETATM    4  C9    D T 801       6.097  -3.201  -6.743  1.00 40.68     0.059 A 
HETATM    5  C8    D T 801       7.011  -3.860  -7.592  1.00 40.60     0.004 A 
HETATM    6  C7    D T 801       7.459  -3.270  -8.765  1.00 42.33    -0.004 A 
HETATM    7  C6    D T 801       7.023  -2.015  -9.152  1.00 44.57    -0.014 A 
HETATM    8  C5    D T 801       6.109  -1.331  -8.330  1.00 44.90     0.038 A 
HETATM    9  C11   D T 801       7.539  -1.413 -10.433  1.00 40.34     0.032 C 
HETATM   10  C10   D T 801       5.654  -1.929  -7.140  1.00 44.55     0.013 A 
BRANCH   8  11
HETATM   11  C4    D T 801       5.589  -0.027  -8.625  1.00 43.57    -0.058 C 
HETATM   12  C3    D T 801       5.187   1.045  -8.902  1.00 44.10    -0.039 C 
BRANCH  12  13
HETATM   13  C2    D T 801       4.642   2.336  -9.200  1.00 46.85     0.145 A 
HETATM   14  N82   D T 801       5.027   3.583  -8.769  1.00 45.71    -0.203 N 
HETATM   15  N81   D T 801       6.034   4.020  -7.897  1.00 48.41    -0.162 NA
HETATM   16  C84   D T 801       4.181   4.486  -9.382  1.00 48.08     0.165 A 
HETATM   17  C83   D T 801       6.180   5.300  -7.652  1.00 54.40     0.121 A 
HETATM   18  C82   D T 801       5.335   6.248  -8.260  1.00 53.21     0.026 A 
HETATM   19  C81   D T 801       4.344   5.860  -9.118  1.00 48.83     0.041 A 
HETATM   20  N1    D T 801       3.327   3.825 -10.149  1.00 46.84    -0.223 NA
HETATM   21  C1    D T 801       3.580   2.530 -10.061  1.00 46.95     0.128 A 
ENDBRANCH  12  13
ENDBRANCH   8  11
ENDBRANCH   1   4
BRANCH   3  22
HETATM   22  C13   D T 801       5.155  -5.847  -4.134  1.00 45.13     0.085 A 
HETATM   23  C14   D T 801       5.945  -6.785  -3.472  1.00 45.97     0.019 A 
HETATM   24  C15   D T 801       5.445  -7.504  -2.394  1.00 43.20    -0.001 A 
HETATM   25  C16   D T 801       4.134  -7.324  -1.946  1.00 40.99     0.015 A 
HETATM   26  C17   D T 801       3.318  -6.396  -2.633  1.00 44.10     0.071 A 
HETATM   27  C18   D T 801       3.835  -5.680  -3.717  1.00 42.25     0.023 A 
BRANCH  25  28
HETATM   28  C20   D T 801       3.626  -8.143  -0.761  1.00 39.15     0.277 C 
BRANCH  28  29
HETATM   29  N3    D T 801       4.670  -8.664   0.141  1.00 38.29     0.146 N 
HETATM   30  C21   D T 801       4.162  -9.808   0.928  1.00 41.73     0.286 C 
HETATM   31  C22   D T 801       5.241 -10.353   1.872  1.00 41.71     0.286 C 
HETATM   32  N4    D T 801       5.745  -9.265   2.724  1.00 48.22     0.143 N 
HETATM   33  C23   D T 801       6.315  -8.185   1.898  1.00 42.74     0.286 C 
HETATM   34  C25   D T 801       6.716  -9.764   3.706  1.00 47.13     0.285 C 
HETATM   35  C24   D T 801       5.202  -7.608   1.017  1.00 36.93     0.286 C 
ENDBRANCH  28  29
ENDBRANCH  25  28
BRANCH  26  36
HETATM   36  C19   D T 801       1.881  -6.131  -2.227  1.00 42.98     0.419 C 
HETATM   37  F1    D T 801       1.218  -5.294  -3.134  1.00 48.85    -0.166 F 
HETATM   38  F2    D T 801       1.175  -7.332  -2.121  1.00 43.91    -0.166 F 
HETATM   39  F3    D T 801       1.895  -5.502  -0.987  1.00 45.50    -0.166 F 
ENDBRANCH  26  36
ENDBRANCH   3  22
TORSDOF 7
