REMARK  7 active torsions:
REMARK  status: ('A' for Active; 'I' for Inactive)
REMARK    1  A    between atoms: N3_2  and  C20_12 
REMARK    2  A    between atoms: C4_3  and  C5_4 
REMARK    3  A    between atoms: C13_9  and  N2_29 
REMARK    4  A    between atoms: C17_11  and  C19_33 
REMARK    5  A    between atoms: C20_12  and  C16_31 
REMARK    6  A    between atoms: C2_23  and  C3_24 
REMARK    7  A    between atoms: C9_25  and  C12_27 
REMARK       I    between atoms: C12_27  and  N2_29 
ROOT
HETATM    1  C12   D T 801      -2.190   1.076  -3.454  1.00 44.92     0.279 C 
HETATM    2  O1    D T 801      -2.935   0.588  -2.624  1.00 47.76    -0.265 OA
HETATM    3  N2    D T 801      -1.603   2.284  -3.210  1.00 46.59    -0.208 NA
ENDROOT
BRANCH   1   4
HETATM    4  C9    D T 801      -1.905   0.314  -4.712  1.00 40.68     0.059 A 
HETATM    5  C8    D T 801      -1.331   0.905  -5.857  1.00 40.60     0.004 A 
HETATM    6  C7    D T 801      -1.059   0.158  -6.994  1.00 42.33    -0.004 A 
HETATM    7  C6    D T 801      -1.335  -1.197  -7.048  1.00 44.57    -0.014 A 
HETATM    8  C5    D T 801      -1.904  -1.820  -5.922  1.00 44.90     0.038 A 
HETATM    9  C11   D T 801      -1.024  -1.968  -8.305  1.00 40.34     0.032 C 
HETATM   10  C10   D T 801      -2.180  -1.062  -4.769  1.00 44.55     0.013 A 
BRANCH   8  11
HETATM   11  C4    D T 801      -2.235  -3.214  -5.861  1.00 43.57    -0.058 C 
HETATM   12  C3    D T 801      -2.494  -4.363  -5.851  1.00 44.10    -0.039 C 
BRANCH  12  13
HETATM   13  C2    D T 801      -2.805  -5.759  -5.771  1.00 46.85     0.145 A 
HETATM   14  N82   D T 801      -3.993  -6.417  -5.977  1.00 45.71    -0.203 N 
HETATM   15  N81   D T 801      -5.284  -5.974  -6.301  1.00 48.41    -0.162 NA
HETATM   16  C84   D T 801      -3.731  -7.761  -5.799  1.00 48.08     0.165 A 
HETATM   17  C83   D T 801      -6.261  -6.839  -6.435  1.00 54.40     0.121 A 
HETATM   18  C82   D T 801      -6.028  -8.216  -6.260  1.00 53.21     0.026 A 
HETATM   19  C81   D T 801      -4.783  -8.687  -5.948  1.00 48.83     0.041 A 
HETATM   20  N1    D T 801      -2.450  -7.916  -5.504  1.00 46.84    -0.223 NA
HETATM   21  C1    D T 801      -1.865  -6.729  -5.480  1.00 46.95     0.128 A 
ENDBRANCH  12  13
ENDBRANCH   8  11
ENDBRANCH   1   4
BRANCH   3  22
HETATM   22  C13   D T 801      -1.757   3.070  -2.051  1.00 45.13     0.085 A 
HETATM   23  C14   D T 801      -2.008   4.437  -2.151  1.00 45.97     0.019 A 
HETATM   24  C15   D T 801      -2.117   5.226  -1.014  1.00 43.20    -0.001 A 
HETATM   25  C16   D T 801      -1.964   4.684   0.264  1.00 40.99     0.015 A 
HETATM   26  C17   D T 801      -1.679   3.303   0.371  1.00 44.10     0.071 A 
HETATM   27  C18   D T 801      -1.571   2.522  -0.783  1.00 42.25     0.023 A 
BRANCH  25  28
HETATM   28  C20   D T 801      -2.086   5.593   1.486  1.00 39.15     0.277 C 
BRANCH  28  29
HETATM   29  N3    D T 801      -2.854   6.834   1.277  1.00 38.29     0.146 N 
HETATM   30  C21   D T 801      -2.512   7.845   2.300  1.00 41.73     0.286 C 
HETATM   31  C22   D T 801      -3.312   9.136   2.092  1.00 41.71     0.286 C 
HETATM   32  N4    D T 801      -4.750   8.827   2.067  1.00 48.22     0.143 N 
HETATM   33  C23   D T 801      -5.055   7.880   0.979  1.00 42.74     0.286 C 
HETATM   34  C25   D T 801      -5.556  10.050   1.960  1.00 47.13     0.285 C 
HETATM   35  C24   D T 801      -4.303   6.572   1.248  1.00 36.93     0.286 C 
ENDBRANCH  28  29
ENDBRANCH  25  28
BRANCH  26  36
HETATM   36  C19   D T 801      -1.492   2.620   1.712  1.00 42.98     0.419 C 
HETATM   37  F1    D T 801      -1.067   1.292   1.578  1.00 48.85    -0.166 F 
HETATM   38  F2    D T 801      -0.561   3.316   2.489  1.00 43.91    -0.166 F 
HETATM   39  F3    D T 801      -2.719   2.620   2.367  1.00 45.50    -0.166 F 
ENDBRANCH  26  36
ENDBRANCH   3  22
TORSDOF 7
