REMARK  7 active torsions:
REMARK  status: ('A' for Active; 'I' for Inactive)
REMARK    1  A    between atoms: N3_2  and  C20_12 
REMARK    2  A    between atoms: C4_3  and  C5_4 
REMARK    3  A    between atoms: C13_9  and  N2_29 
REMARK    4  A    between atoms: C17_11  and  C19_33 
REMARK    5  A    between atoms: C20_12  and  C16_31 
REMARK    6  A    between atoms: C2_23  and  C3_24 
REMARK    7  A    between atoms: C9_25  and  C12_27 
REMARK       I    between atoms: C12_27  and  N2_29 
ROOT
HETATM    1  C12   D T1001       2.990  -3.208  -7.917  1.00 21.80     0.275 C 
HETATM    2  O1    D T1001       2.655  -2.523  -6.955  1.00 20.56    -0.266 OA
HETATM    3  N2    D T1001       2.442  -4.409  -8.232  1.00 21.64    -0.213 NA
ENDROOT
BRANCH   1   4
HETATM    4  C9    D T1001       4.046  -2.692  -8.834  1.00 20.47     0.037 A 
HETATM    5  C8    D T1001       4.360  -3.288 -10.138  1.00 19.32     0.036 A 
HETATM    6  C7    D T1001       5.409  -2.695 -10.967  1.00 17.62     0.028 A 
HETATM    7  C6    D T1001       6.135  -1.510 -10.491  1.00 19.91    -0.036 A 
HETATM    8  C5    D T1001       5.792  -0.934  -9.171  1.00 19.06     0.034 A 
HETATM    9  C11   D T1001       7.226  -0.895 -11.387  1.00 18.27     0.027 C 
HETATM   10  C10   D T1001       4.778  -1.528  -8.391  1.00 19.95     0.008 A 
BRANCH   8  11
HETATM   11  C4    D T1001       6.432   0.248  -8.592  1.00 21.50    -0.059 C 
HETATM   12  C3    D T1001       6.853   1.304  -8.209  1.00 21.04    -0.039 C 
BRANCH  12  13
HETATM   13  C2    D T1001       7.243   2.577  -7.846  1.00 21.60     0.145 A 
HETATM   14  N82   D T1001       8.171   2.910  -6.904  1.00 22.53    -0.203 N 
HETATM   15  N81   D T1001       8.918   2.044  -6.130  1.00 22.62    -0.162 NA
HETATM   16  C84   D T1001       8.184   4.360  -6.914  1.00 22.97     0.165 A 
HETATM   17  C83   D T1001       9.754   2.685  -5.290  1.00 23.24     0.121 A 
HETATM   18  C82   D T1001       9.885   4.132  -5.175  1.00 23.56     0.026 A 
HETATM   19  C81   D T1001       9.104   4.967  -5.988  1.00 23.17     0.041 A 
HETATM   20  N1    D T1001       7.329   4.836  -7.801  1.00 21.53    -0.223 NA
HETATM   21  C1    D T1001       6.739   3.728  -8.380  1.00 23.44     0.128 A 
ENDBRANCH  12  13
ENDBRANCH   8  11
ENDBRANCH   1   4
BRANCH   3  22
HETATM   22  C13   D T1001       1.254  -4.982  -7.675  1.00 24.15     0.062 A 
HETATM   23  C14   D T1001       1.073  -6.409  -7.734  1.00 25.53     0.050 A 
HETATM   24  C15   D T1001      -0.122  -7.009  -7.173  1.00 24.42     0.030 A 
HETATM   25  C16   D T1001      -1.156  -6.201  -6.538  1.00 26.01    -0.007 A 
HETATM   26  C17   D T1001      -0.966  -4.726  -6.477  1.00 24.28     0.067 A 
HETATM   27  C18   D T1001       0.223  -4.174  -7.044  1.00 22.80     0.018 A 
BRANCH  25  28
HETATM   28  C20   D T1001      -2.406  -6.940  -5.953  1.00 28.53     0.273 C 
BRANCH  28  29
HETATM   29  N3    D T1001      -2.133  -8.274  -5.397  1.00 30.48     0.145 N 
HETATM   30  C21   D T1001      -1.300  -8.258  -4.142  1.00 31.29     0.286 C 
HETATM   31  C22   D T1001      -0.896  -9.716  -3.738  1.00 35.47     0.286 C 
HETATM   32  N4    D T1001      -2.116 -10.539  -3.483  1.00 37.17     0.143 N 
HETATM   33  C23   D T1001      -3.047 -10.579  -4.692  1.00 33.99     0.286 C 
HETATM   34  C25   D T1001      -1.780 -11.866  -2.939  1.00 37.63     0.285 C 
HETATM   35  C24   D T1001      -3.372  -9.129  -5.257  1.00 32.15     0.286 C 
ENDBRANCH  28  29
ENDBRANCH  25  28
BRANCH  26  36
HETATM   36  C19   D T1001      -1.964  -3.738  -5.830  1.00 24.31     0.418 C 
HETATM   37  F1    D T1001      -1.984  -3.935  -4.516  1.00 23.22    -0.166 F 
HETATM   38  F2    D T1001      -1.640  -2.463  -6.037  1.00 23.17    -0.166 F 
HETATM   39  F3    D T1001      -3.177  -3.903  -6.364  1.00 25.20    -0.166 F 
ENDBRANCH  26  36
ENDBRANCH   3  22
TORSDOF 7
