REMARK  7 active torsions:
REMARK  status: ('A' for Active; 'I' for Inactive)
REMARK    1  A    between atoms: N3_2  and  C20_12 
REMARK    2  A    between atoms: C4_3  and  C5_4 
REMARK    3  A    between atoms: C13_9  and  N2_29 
REMARK    4  A    between atoms: C17_11  and  C19_33 
REMARK    5  A    between atoms: C20_12  and  C16_31 
REMARK    6  A    between atoms: C2_23  and  C3_24 
REMARK    7  A    between atoms: C9_25  and  C12_27 
REMARK       I    between atoms: C12_27  and  N2_29 
ROOT
HETATM    1  C12   D T1001      -1.712  12.187  -1.890  1.00 21.80     0.275 C 
HETATM    2  O1    D T1001      -1.024  11.287  -2.365  1.00 20.56    -0.266 OA
HETATM    3  N2    D T1001      -2.740  12.791  -2.539  1.00 21.64    -0.209 NA
ENDROOT
BRANCH   1   4
HETATM    4  C9    D T1001      -1.438  12.642  -0.497  1.00 20.47     0.037 A 
HETATM    5  C8    D T1001      -2.329  13.523   0.266  1.00 19.32     0.036 A 
HETATM    6  C7    D T1001      -1.972  13.899   1.633  1.00 17.62     0.028 A 
HETATM    7  C6    D T1001      -0.729  13.392   2.230  1.00 19.91    -0.036 A 
HETATM    8  C5    D T1001       0.147  12.505   1.432  1.00 19.06     0.034 A 
HETATM    9  C11   D T1001      -0.381  13.792   3.676  1.00 18.27     0.027 C 
HETATM   10  C10   D T1001      -0.221  12.160   0.115  1.00 19.95     0.008 A 
BRANCH   8  11
HETATM   11  C4    D T1001       1.401  11.927   1.916  1.00 21.50    -0.059 C 
HETATM   12  C3    D T1001       2.336  11.338   2.384  1.00 21.04    -0.039 C 
BRANCH  12  13
HETATM   13  C2    D T1001       3.323  10.570   2.968  1.00 21.60     0.145 A 
HETATM   14  N82   D T1001       4.670  10.745   2.853  1.00 22.53    -0.203 N 
HETATM   15  N81   D T1001       5.322  11.731   2.139  1.00 22.62    -0.162 NA
HETATM   16  C84   D T1001       5.238   9.672   3.645  1.00 22.97     0.165 A 
HETATM   17  C83   D T1001       6.664  11.635   2.224  1.00 23.24     0.121 A 
HETATM   18  C82   D T1001       7.388  10.617   2.974  1.00 23.56     0.026 A 
HETATM   19  C81   D T1001       6.676   9.640   3.686  1.00 23.17     0.041 A 
HETATM   20  N1    D T1001       4.289   8.930   4.186  1.00 21.53    -0.223 NA
HETATM   21  C1    D T1001       3.095   9.484   3.763  1.00 23.44     0.128 A 
ENDBRANCH  12  13
ENDBRANCH   8  11
ENDBRANCH   1   4
BRANCH   3  22
HETATM   22  C13   D T1001      -3.359  12.359  -3.756  1.00 24.15     0.081 A 
HETATM   23  C14   D T1001      -4.070  13.319  -4.557  1.00 25.53    -0.003 A 
HETATM   24  C15   D T1001      -4.701  12.903  -5.794  1.00 24.42     0.051 A 
HETATM   25  C16   D T1001      -4.630  11.524  -6.260  1.00 26.01    -0.003 A 
HETATM   26  C17   D T1001      -3.892  10.532  -5.431  1.00 24.28     0.067 A 
HETATM   27  C18   D T1001      -3.288  10.982  -4.217  1.00 22.80     0.022 A 
BRANCH  25  28
HETATM   28  C20   D T1001      -5.334  11.171  -7.613  1.00 28.53     0.273 C 
BRANCH  28  29
HETATM   29  N3    D T1001      -5.313  12.242  -8.620  1.00 30.48     0.145 N 
HETATM   30  C21   D T1001      -3.944  12.537  -9.174  1.00 31.29     0.286 C 
HETATM   31  C22   D T1001      -3.987  13.812 -10.082  1.00 35.47     0.286 C 
HETATM   32  N4    D T1001      -4.922  13.601 -11.227  1.00 37.17     0.143 N 
HETATM   33  C23   D T1001      -6.333  13.254 -10.760  1.00 33.99     0.286 C 
HETATM   34  C25   D T1001      -4.865  14.710 -12.195  1.00 37.63     0.285 C 
HETATM   35  C24   D T1001      -6.349  12.064  -9.707  1.00 32.15     0.286 C 
ENDBRANCH  28  29
ENDBRANCH  25  28
BRANCH  26  36
HETATM   36  C19   D T1001      -3.720   9.038  -5.793  1.00 24.31     0.418 C 
HETATM   37  F1    D T1001      -2.943   8.936  -6.866  1.00 23.22    -0.166 F 
HETATM   38  F2    D T1001      -3.151   8.330  -4.820  1.00 23.17    -0.166 F 
HETATM   39  F3    D T1001      -4.915   8.482  -6.006  1.00 25.20    -0.166 F 
ENDBRANCH  26  36
ENDBRANCH   3  22
TORSDOF 7
