REMARK  7 active torsions:
REMARK  status: ('A' for Active; 'I' for Inactive)
REMARK    1  A    between atoms: N3_2  and  C20_12 
REMARK    2  A    between atoms: C4_3  and  C5_4 
REMARK    3  A    between atoms: C13_9  and  N2_29 
REMARK    4  A    between atoms: C17_11  and  C19_33 
REMARK    5  A    between atoms: C20_12  and  C16_31 
REMARK    6  A    between atoms: C2_23  and  C3_24 
REMARK    7  A    between atoms: C9_25  and  C12_27 
REMARK       I    between atoms: C12_27  and  N2_29 
ROOT
HETATM    1  C12   D T1001       3.443  -2.918  -7.861  1.00 21.80     0.275 C 
HETATM    2  O1    D T1001       2.501  -3.207  -7.128  1.00 20.56    -0.266 OA
HETATM    3  N2    D T1001       4.644  -2.460  -7.422  1.00 21.64    -0.213 NA
ENDROOT
BRANCH   1   4
HETATM    4  C9    D T1001       3.293  -3.102  -9.332  1.00 20.47     0.037 A 
HETATM    5  C8    D T1001       4.407  -3.029 -10.284  1.00 19.32     0.036 A 
HETATM    6  C7    D T1001       4.152  -3.239 -11.709  1.00 17.62     0.028 A 
HETATM    7  C6    D T1001       2.787  -3.521 -12.173  1.00 19.91    -0.036 A 
HETATM    8  C5    D T1001       1.686  -3.588 -11.186  1.00 19.06     0.034 A 
HETATM    9  C11   D T1001       2.545  -3.750 -13.677  1.00 18.27     0.027 C 
HETATM   10  C10   D T1001       1.960  -3.379  -9.818  1.00 19.95     0.008 A 
BRANCH   8  11
HETATM   11  C4    D T1001       0.290  -3.872 -11.520  1.00 21.50    -0.059 C 
HETATM   12  C3    D T1001      -0.811  -4.264 -11.792  1.00 21.04    -0.039 C 
BRANCH  12  13
HETATM   13  C2    D T1001      -2.028  -4.839 -12.095  1.00 21.60     0.145 A 
HETATM   14  N82   D T1001      -3.220  -4.196 -12.250  1.00 22.53    -0.203 N 
HETATM   15  N81   D T1001      -3.452  -2.838 -12.146  1.00 22.62    -0.162 NA
HETATM   16  C84   D T1001      -4.163  -5.257 -12.544  1.00 22.97     0.165 A 
HETATM   17  C83   D T1001      -4.742  -2.512 -12.356  1.00 23.24     0.121 A 
HETATM   18  C82   D T1001      -5.810  -3.457 -12.658  1.00 23.56     0.026 A 
HETATM   19  C81   D T1001      -5.520  -4.826 -12.755  1.00 23.17     0.041 A 
HETATM   20  N1    D T1001      -3.561  -6.433 -12.564  1.00 21.53    -0.223 NA
HETATM   21  C1    D T1001      -2.233  -6.176 -12.281  1.00 23.44     0.128 A 
ENDBRANCH  12  13
ENDBRANCH   8  11
ENDBRANCH   1   4
BRANCH   3  22
HETATM   22  C13   D T1001       5.118  -2.454  -6.071  1.00 24.15     0.062 A 
HETATM   23  C14   D T1001       6.155  -1.528  -5.700  1.00 25.53     0.050 A 
HETATM   24  C15   D T1001       6.647  -1.502  -4.336  1.00 24.42     0.030 A 
HETATM   25  C16   D T1001       6.111  -2.394  -3.315  1.00 26.01    -0.007 A 
HETATM   26  C17   D T1001       5.037  -3.349  -3.701  1.00 24.28     0.067 A 
HETATM   27  C18   D T1001       4.583  -3.345  -5.055  1.00 22.80     0.018 A 
BRANCH  25  28
HETATM   28  C20   D T1001       6.698  -2.286  -1.868  1.00 28.53     0.273 C 
BRANCH  28  29
HETATM   29  N3    D T1001       7.099  -0.931  -1.460  1.00 30.48     0.145 N 
HETATM   30  C21   D T1001       5.946   0.022  -1.283  1.00 31.29     0.286 C 
HETATM   31  C22   D T1001       6.474   1.477  -1.047  1.00 35.47     0.286 C 
HETATM   32  N4    D T1001       7.319   1.527   0.183  1.00 37.17     0.143 N 
HETATM   33  C23   D T1001       8.496   0.557   0.113  1.00 33.99     0.286 C 
HETATM   34  C25   D T1001       7.698   2.906   0.534  1.00 37.63     0.285 C 
HETATM   35  C24   D T1001       8.047  -0.915  -0.283  1.00 32.15     0.286 C 
ENDBRANCH  28  29
ENDBRANCH  25  28
BRANCH  26  36
HETATM   36  C19   D T1001       4.362  -4.350  -2.734  1.00 24.31     0.418 C 
HETATM   37  F1    D T1001       3.642  -3.676  -1.842  1.00 23.22    -0.166 F 
HETATM   38  F2    D T1001       3.540  -5.196  -3.352  1.00 23.17    -0.166 F 
HETATM   39  F3    D T1001       5.290  -5.103  -2.139  1.00 25.20    -0.166 F 
ENDBRANCH  26  36
ENDBRANCH   3  22
TORSDOF 7
