REMARK  10 active torsions:
REMARK  status: ('A' for Active; 'I' for Inactive)
REMARK    1  A    between atoms: C7_7  and  C8_8 
REMARK       I    between atoms: C8_8  and  N9_9 
REMARK    2  A    between atoms: N9_9  and  C40_40 
REMARK    3  A    between atoms: C16_16  and  N18_18 
REMARK    4  A    between atoms: N18_18  and  C19_19 
REMARK    5  A    between atoms: C20_20  and  O25_25 
REMARK    6  A    between atoms: C22_22  and  C26_26 
REMARK    7  A    between atoms: O25_25  and  C36_36 
REMARK       I    between atoms: C26_26  and  N27_27 
REMARK    8  A    between atoms: N27_27  and  C29_29 
REMARK    9  A    between atoms: C41_41  and  C48_48 
REMARK   10  A    between atoms: C45_45  and  C46_46 
ROOT
HETATM    1  C1    D T1795       2.009 -14.508 -19.595  1.00 51.63     0.034 C 
HETATM    2  C2    D T1795       1.135 -13.477 -20.320  1.00 51.52     0.034 C 
HETATM    3  C3    D T1795       1.861 -14.508 -18.095  1.00 55.48     0.021 A 
HETATM    4  C4    D T1795       1.223 -13.497 -17.409  1.00 57.75     0.094 A 
HETATM    5  N5    D T1795       1.309 -13.816 -16.035  1.00 62.61    -0.248 N 
HETATM    6  N6    D T1795       1.956 -14.992 -15.859  1.00 59.90    -0.165 NA
HETATM    7  C7    D T1795       2.306 -15.442 -17.064  1.00 58.43     0.156 A 
HETATM    8  C11   D T1795       0.841 -13.100 -14.855  1.00 65.05     0.154 C 
HETATM    9  C12   D T1795       0.551 -12.398 -18.075  1.00 55.85     0.114 A 
HETATM   10  C13   D T1795       0.570 -12.361 -19.474  1.00 52.95     0.018 A 
HETATM   11  C14   D T1795      -0.035 -11.245 -20.014  1.00 52.30     0.115 A 
HETATM   12  N15   D T1795      -0.614 -10.265 -19.299  1.00 54.82    -0.058 NA
HETATM   13  C16   D T1795      -0.590 -10.424 -17.967  1.00 57.72     0.750 A 
HETATM   14  N17   D T1795      -0.039 -11.460 -17.321  1.00 57.61    -0.058 NA
ENDROOT
BRANCH  13  15
HETATM   15  N18   D T1795      -1.162  -9.509 -17.132  1.00 60.94    -0.057 NA
BRANCH  15  16
HETATM   16  C19   D T1795      -1.569  -9.570 -15.766  1.00 65.47     0.122 A 
HETATM   17  C20   D T1795      -1.911  -8.371 -15.087  1.00 70.47     0.120 A 
HETATM   18  C21   D T1795      -2.292  -8.400 -13.750  1.00 69.94     0.031 A 
HETATM   19  C22   D T1795      -2.382  -9.618 -13.079  1.00 71.79     0.060 A 
HETATM   20  C23   D T1795      -2.144 -10.802 -13.775  1.00 67.37     0.006 A 
HETATM   21  C24   D T1795      -1.735 -10.783 -15.097  1.00 64.33     0.022 A 
BRANCH  17  22
HETATM   22  O25   D T1795      -1.959  -7.157 -15.764  1.00 74.50    -0.252 OA
BRANCH  22  23
HETATM   23  C36   D T1795      -1.119  -6.158 -15.506  1.00 73.62     0.530 C 
HETATM   24  F37   D T1795      -1.850  -5.080 -15.407  1.00 76.85    -0.144 F 
HETATM   25  F38   D T1795      -0.322  -5.990 -16.530  1.00 74.19    -0.144 F 
HETATM   26  F39   D T1795      -0.380  -6.220 -14.422  1.00 69.98    -0.144 F 
ENDBRANCH  22  23
ENDBRANCH  17  22
BRANCH  19  27
HETATM   27  C26   D T1795      -2.604  -9.675 -11.597  1.00 79.40     0.275 C 
HETATM   28  N27   D T1795      -3.316  -8.680 -11.046  1.00 83.12    -0.236 NA
HETATM   29  O28   D T1795      -2.137 -10.592 -10.922  1.00 82.99    -0.266 OA
BRANCH  28  30
HETATM   30  C29   D T1795      -3.638  -8.647  -9.619  1.00 87.94     0.111 C 
HETATM   31  C30   D T1795      -2.492  -8.051  -8.811  1.00 90.97     0.060 C 
HETATM   32  C31   D T1795      -2.880  -7.942  -7.329  1.00 92.12     0.252 C 
HETATM   33  N32   D T1795      -4.094  -7.145  -7.159  1.00 92.37     0.139 N 
HETATM   34  C33   D T1795      -5.208  -7.786  -7.858  1.00 90.99     0.252 C 
HETATM   35  C35   D T1795      -4.405  -6.975  -5.739  1.00 92.33     0.285 C 
HETATM   36  C34   D T1795      -4.932  -7.884  -9.364  1.00 89.52     0.060 C 
ENDBRANCH  28  30
ENDBRANCH  19  27
ENDBRANCH  15  16
ENDBRANCH  13  15
BRANCH   7  37
HETATM   37  C8    D T1795       2.988 -16.759 -17.210  1.00 60.70     0.298 C 
HETATM   38  N9    D T1795       3.064 -17.473 -16.056  1.00 63.10    -0.207 NA
HETATM   39  O10   D T1795       3.409 -17.159 -18.296  1.00 59.02    -0.263 OA
BRANCH  38  40
HETATM   40  C40   D T1795       3.648 -18.767 -15.930  1.00 66.12     0.077 A 
HETATM   41  C41   D T1795       2.954 -19.930 -16.304  1.00 65.21    -0.005 A 
HETATM   42  C42   D T1795       3.663 -21.129 -16.312  1.00 66.54    -0.003 A 
HETATM   43  C43   D T1795       5.000 -21.168 -15.947  1.00 67.86    -0.001 A 
HETATM   44  C44   D T1795       5.650 -20.013 -15.537  1.00 69.17    -0.003 A 
HETATM   45  C45   D T1795       4.978 -18.792 -15.487  1.00 69.30    -0.005 A 
BRANCH  41  46
HETATM   46  C48   D T1795       1.470 -19.965 -16.617  1.00 62.37     0.028 C 
HETATM   47  C49   D T1795       0.550 -19.846 -15.422  1.00 61.99     0.005 C 
ENDBRANCH  41  46
BRANCH  45  48
HETATM   48  C46   D T1795       5.623 -17.616 -14.774  1.00 69.86     0.028 C 
HETATM   49  C47   D T1795       6.440 -16.702 -15.616  1.00 69.60     0.005 C 
ENDBRANCH  45  48
ENDBRANCH  38  40
ENDBRANCH   7  37
TORSDOF 10
