REMARK  9 active torsions:
REMARK  status: ('A' for Active; 'I' for Inactive)
REMARK    1  A    between atoms: C02_2  and  N03_3 
REMARK    2  A    between atoms: N03_3  and  C04_4 
REMARK    3  A    between atoms: N03_3  and  C06_6 
REMARK    4  A    between atoms: C06_6  and  C07_7 
REMARK    5  A    between atoms: C07_7  and  O08_8 
REMARK    6  A    between atoms: O08_8  and  C09_9 
REMARK    7  A    between atoms: C12_12  and  N13_13 
REMARK    8  A    between atoms: N13_13  and  C14_14 
REMARK    9  A    between atoms: C21_21  and  C26_26 
ROOT
HETATM    1  C14   D T 601       4.946   8.963  -5.841  1.00 17.92     0.728 A 
HETATM    2  N15   D T 601       5.533   7.772  -5.607  1.00 19.07    -0.044 NA
HETATM    3  C16   D T 601       5.432   6.707  -6.413  1.00 18.16     0.163 A 
HETATM    4  C17   D T 601       4.644   6.831  -7.560  1.00 16.80     0.030 A 
HETATM    5  C18   D T 601       3.999   8.048  -7.787  1.00 18.08     0.151 A 
HETATM    6  N19   D T 601       4.165   9.076  -6.929  1.00 16.91    -0.074 NA
HETATM    7  C20   D T 601       4.496   5.729  -8.426  1.00 17.65     0.034 A 
HETATM    8  C21   D T 601       5.154   4.521  -8.148  1.00 18.53     0.047 A 
HETATM    9  C22   D T 601       5.935   4.452  -6.968  1.00 19.48     0.260 A 
HETATM   10  O23   D T 601       6.466   3.341  -6.756  1.00 21.52    -0.267 OA
HETATM   11  N24   D T 601       6.081   5.534  -6.120  1.00 19.49    -0.301 N 
HETATM   12  C25   D T 601       6.900   5.496  -4.919  1.00 20.07     0.161 C 
ENDROOT
BRANCH   1  13
HETATM   13  N13   D T 601       5.121   9.978  -4.980  1.00 20.14    -0.188 N 
HETATM   14 1H13   D T 601       4.549  10.685  -5.102  1.00 24.16     0.184 HD
BRANCH  13  15
HETATM   15  C12   D T 601       6.017  10.133  -3.945  1.00 24.69     0.049 A 
HETATM   16  C11   D T 601       6.342  11.464  -3.576  1.00 26.89     0.033 A 
HETATM   17  C10   D T 601       7.236  11.716  -2.513  1.00 28.95     0.039 A 
HETATM   18  C09   D T 601       7.799  10.637  -1.799  1.00 30.95     0.069 A 
HETATM   19  C35   D T 601       7.456   9.318  -2.145  1.00 28.80     0.039 A 
HETATM   20  C34   D T 601       6.582   9.078  -3.211  1.00 26.81     0.033 A 
BRANCH  18  21
HETATM   21  O08   D T 601       8.623  10.848  -0.748  1.00 36.09    -0.350 OA
BRANCH  21  22
HETATM   22  C07   D T 601       9.703   9.886  -0.605  1.00 42.63     0.195 C 
BRANCH  22  23
HETATM   23  C06   D T 601      10.966  10.619  -0.054  1.00 46.85     0.143 C 
BRANCH  23  24
HETATM   24  N03   D T 601      10.650  11.794   0.843  1.00 51.06    -0.411 N 
BRANCH  24  25
HETATM   25  C02   D T 601      10.766  13.236   0.356  1.00 53.85     0.112 C 
HETATM   26  C01   D T 601       9.643  13.814  -0.567  1.00 52.69     0.026 C 
ENDBRANCH  24  25
BRANCH  24  27
HETATM   27  C04   D T 601      10.090  11.469   2.203  1.00 47.80     0.112 C 
HETATM   28  C05   D T 601       8.710  10.759   2.285  1.00 44.89     0.026 C 
ENDBRANCH  24  27
ENDBRANCH  23  24
ENDBRANCH  22  23
ENDBRANCH  21  22
ENDBRANCH  18  21
ENDBRANCH  13  15
ENDBRANCH   1  13
BRANCH   8  29
HETATM   29  C26   D T 601       5.033   3.394  -9.023  1.00 21.63     0.023 A 
HETATM   30  C27   D T 601       5.772   3.348 -10.238  1.00 22.75     0.046 A 
HETATM   31 CL28   D T 601       6.758   4.643 -10.686  1.00 22.59    -0.083 Cl
HETATM   32  C29   D T 601       5.680   2.245 -11.128  1.00 24.08     0.025 A 
HETATM   33  C30   D T 601       4.871   1.138 -10.785  1.00 25.63     0.003 A 
HETATM   34  C31   D T 601       4.155   1.156  -9.580  1.00 25.41     0.025 A 
HETATM   35  C32   D T 601       4.233   2.271  -8.708  1.00 23.77     0.046 A 
HETATM   36 CL33   D T 601       3.338   2.234  -7.273  1.00 25.94    -0.083 Cl
ENDBRANCH   8  29
TORSDOF 9
