REMARK  9 active torsions:
REMARK  status: ('A' for Active; 'I' for Inactive)
REMARK    1  A    between atoms: C02_2  and  N03_3 
REMARK    2  A    between atoms: N03_3  and  C04_4 
REMARK    3  A    between atoms: N03_3  and  C06_6 
REMARK    4  A    between atoms: C06_6  and  C07_7 
REMARK    5  A    between atoms: C07_7  and  O08_8 
REMARK    6  A    between atoms: O08_8  and  C09_9 
REMARK    7  A    between atoms: C12_12  and  N13_13 
REMARK    8  A    between atoms: N13_13  and  C14_14 
REMARK    9  A    between atoms: C21_21  and  C26_26 
ROOT
HETATM    1  C14   D T 601      -3.632  -8.416   6.085  1.00 17.92     0.728 A 
HETATM    2  N15   D T 601      -3.492  -8.367   4.745  1.00 19.07    -0.044 NA
HETATM    3  C16   D T 601      -2.410  -7.890   4.115  1.00 18.16     0.163 A 
HETATM    4  C17   D T 601      -1.368  -7.386   4.898  1.00 16.80     0.030 A 
HETATM    5  C18   D T 601      -1.525  -7.395   6.285  1.00 18.08     0.151 A 
HETATM    6  N19   D T 601      -2.644  -7.906   6.840  1.00 16.91    -0.074 NA
HETATM    7  C20   D T 601      -0.221  -6.857   4.275  1.00 17.65     0.034 A 
HETATM    8  C21   D T 601      -0.116  -6.857   2.875  1.00 18.53     0.047 A 
HETATM    9  C22   D T 601      -1.204  -7.377   2.132  1.00 19.48     0.260 A 
HETATM   10  O23   D T 601      -1.068  -7.318   0.892  1.00 21.52    -0.267 OA
HETATM   11  N24   D T 601      -2.329  -7.896   2.744  1.00 19.49    -0.301 N 
HETATM   12  C25   D T 601      -3.446  -8.461   2.004  1.00 20.07     0.161 C 
ENDROOT
BRANCH   1  13
HETATM   13  N13   D T 601      -4.749  -8.929   6.624  1.00 20.14    -0.188 N 
HETATM   14 1H13   D T 601      -4.854  -8.760   7.520  1.00 24.16     0.184 HD
BRANCH  13  15
HETATM   15  C12   D T 601      -5.762  -9.668   6.055  1.00 24.69     0.049 A 
HETATM   16  C11   D T 601      -6.499 -10.516   6.924  1.00 26.89     0.033 A 
HETATM   17  C10   D T 601      -7.568 -11.295   6.430  1.00 28.95     0.039 A 
HETATM   18  C09   D T 601      -7.920 -11.218   5.065  1.00 30.95     0.069 A 
HETATM   19  C35   D T 601      -7.209 -10.357   4.209  1.00 28.80     0.039 A 
HETATM   20  C34   D T 601      -6.140  -9.603   4.704  1.00 26.81     0.033 A 
BRANCH  18  21
HETATM   21  O08   D T 601      -8.966 -11.918   4.573  1.00 36.09    -0.350 OA
BRANCH  21  22
HETATM   22  C07   D T 601      -8.794 -12.419   3.219  1.00 42.63     0.195 C 
BRANCH  22  23
HETATM   23  C06   D T 601      -9.508 -13.802   3.095  1.00 46.85     0.143 C 
BRANCH  23  24
HETATM   24  N03   D T 601     -10.718 -13.950   3.989  1.00 51.06    -0.411 N 
BRANCH  24  25
HETATM   25  C02   D T 601     -10.674 -14.763   5.279  1.00 53.85     0.112 C 
HETATM   26  C01   D T 601      -9.989 -14.142   6.541  1.00 52.69     0.026 C 
ENDBRANCH  24  25
BRANCH  24  27
HETATM   27  C04   D T 601     -11.934 -13.147   3.610  1.00 47.80     0.112 C 
HETATM   28  C05   D T 601     -11.836 -11.596   3.636  1.00 44.89     0.026 C 
ENDBRANCH  24  27
ENDBRANCH  23  24
ENDBRANCH  22  23
ENDBRANCH  21  22
ENDBRANCH  18  21
ENDBRANCH  13  15
ENDBRANCH   1  13
BRANCH   8  29
HETATM   29  C26   D T 601       1.049  -6.344   2.220  1.00 21.63     0.023 A 
HETATM   30  C27   D T 601       2.241  -7.118   2.164  1.00 22.75     0.046 A 
HETATM   31 CL28   D T 601       2.311  -8.630   2.913  1.00 22.59    -0.083 Cl
HETATM   32  C29   D T 601       3.413  -6.642   1.520  1.00 24.08     0.025 A 
HETATM   33  C30   D T 601       3.392  -5.385   0.875  1.00 25.63     0.003 A 
HETATM   34  C31   D T 601       2.219  -4.618   0.899  1.00 25.41     0.025 A 
HETATM   35  C32   D T 601       1.060  -5.090   1.565  1.00 23.77     0.046 A 
HETATM   36 CL33   D T 601      -0.321  -4.113   1.564  1.00 25.94    -0.083 Cl
ENDBRANCH   8  29
TORSDOF 9
