REMARK  9 active torsions:
REMARK  status: ('A' for Active; 'I' for Inactive)
REMARK    1  A    between atoms: C02_2  and  N03_3 
REMARK    2  A    between atoms: N03_3  and  C04_4 
REMARK    3  A    between atoms: N03_3  and  C06_6 
REMARK    4  A    between atoms: C06_6  and  C07_7 
REMARK    5  A    between atoms: C07_7  and  O08_8 
REMARK    6  A    between atoms: O08_8  and  C09_9 
REMARK    7  A    between atoms: C12_12  and  N13_13 
REMARK    8  A    between atoms: N13_13  and  C14_14 
REMARK    9  A    between atoms: C21_21  and  C26_26 
ROOT
HETATM    1  C14   D T 601      -2.118  -4.935   8.804  1.00 17.92     0.728 A 
HETATM    2  N15   D T 601      -2.226  -3.593   8.867  1.00 19.07    -0.044 NA
HETATM    3  C16   D T 601      -3.313  -2.904   8.496  1.00 18.16     0.163 A 
HETATM    4  C17   D T 601      -4.397  -3.621   7.985  1.00 16.80     0.030 A 
HETATM    5  C18   D T 601      -4.276  -5.008   7.877  1.00 18.08     0.151 A 
HETATM    6  N19   D T 601      -3.148  -5.625   8.285  1.00 16.91    -0.074 NA
HETATM    7  C20   D T 601      -5.554  -2.934   7.566  1.00 17.65     0.034 A 
HETATM    8  C21   D T 601      -5.622  -1.536   7.682  1.00 18.53     0.047 A 
HETATM    9  C22   D T 601      -4.492  -0.861   8.203  1.00 19.48     0.260 A 
HETATM   10  O23   D T 601      -4.599   0.383   8.248  1.00 21.52    -0.267 OA
HETATM   11  N24   D T 601      -3.359  -1.537   8.614  1.00 19.49    -0.301 N 
HETATM   12  C25   D T 601      -2.197  -0.868   9.179  1.00 20.07     0.161 C 
ENDROOT
BRANCH   1  13
HETATM   13  N13   D T 601      -0.991  -5.538   9.216  1.00 20.14    -0.188 N 
HETATM   14 1H13   D T 601      -0.917  -6.419   8.971  1.00 24.16     0.184 HD
BRANCH  13  15
HETATM   15  C12   D T 601       0.071  -5.051   9.945  1.00 24.69     0.049 A 
HETATM   16  C11   D T 601       0.826  -6.000  10.683  1.00 26.89     0.033 A 
HETATM   17  C10   D T 601       1.943  -5.593  11.444  1.00 28.95     0.039 A 
HETATM   18  C09   D T 601       2.326  -4.234  11.457  1.00 30.95     0.069 A 
HETATM   19  C35   D T 601       1.596  -3.297  10.703  1.00 28.80     0.039 A 
HETATM   20  C34   D T 601       0.479  -3.708   9.967  1.00 26.81     0.033 A 
BRANCH  18  21
HETATM   21  O08   D T 601       3.417  -3.822  12.140  1.00 36.09    -0.350 OA
BRANCH  21  22
HETATM   22  C07   D T 601       3.304  -2.509  12.754  1.00 42.63     0.195 C 
BRANCH  22  23
HETATM   23  C06   D T 601       4.087  -2.512  14.105  1.00 46.85     0.143 C 
BRANCH  23  24
HETATM   24  N03   D T 601       5.280  -3.440  14.121  1.00 51.06    -0.411 N 
BRANCH  24  25
HETATM   25  C02   D T 601       5.242  -4.790  14.831  1.00 53.85     0.112 C 
HETATM   26  C01   D T 601       4.496  -5.983  14.148  1.00 52.69     0.026 C 
ENDBRANCH  24  25
BRANCH  24  27
HETATM   27  C04   D T 601       6.465  -3.025  13.290  1.00 47.80     0.112 C 
HETATM   28  C05   D T 601       6.291  -2.924  11.749  1.00 44.89     0.026 C 
ENDBRANCH  24  27
ENDBRANCH  23  24
ENDBRANCH  22  23
ENDBRANCH  21  22
ENDBRANCH  18  21
ENDBRANCH  13  15
ENDBRANCH   1  13
BRANCH   8  29
HETATM   29  C26   D T 601      -6.794  -0.818   7.280  1.00 21.63     0.023 A 
HETATM   30  C27   D T 601      -7.945  -0.798   8.116  1.00 22.75     0.046 A 
HETATM   31 CL28   D T 601      -7.960  -1.664   9.565  1.00 22.59    -0.083 Cl
HETATM   32  C29   D T 601      -9.122  -0.093   7.751  1.00 24.08     0.025 A 
HETATM   33  C30   D T 601      -9.146   0.650   6.550  1.00 25.63     0.003 A 
HETATM   34  C31   D T 601      -8.013   0.662   5.725  1.00 25.41     0.025 A 
HETATM   35  C32   D T 601      -6.849  -0.064   6.085  1.00 23.77     0.046 A 
HETATM   36 CL33   D T 601      -5.517  -0.015   5.042  1.00 25.94    -0.083 Cl
ENDBRANCH   8  29
TORSDOF 9
