REMARK  9 active torsions:
REMARK  status: ('A' for Active; 'I' for Inactive)
REMARK    1  A    between atoms: C02_2  and  N03_3 
REMARK    2  A    between atoms: N03_3  and  C04_4 
REMARK    3  A    between atoms: N03_3  and  C06_6 
REMARK    4  A    between atoms: C06_6  and  C07_7 
REMARK    5  A    between atoms: C07_7  and  O08_8 
REMARK    6  A    between atoms: O08_8  and  C09_9 
REMARK    7  A    between atoms: C12_12  and  N13_13 
REMARK    8  A    between atoms: N13_13  and  C14_14 
REMARK    9  A    between atoms: C21_21  and  C26_26 
ROOT
HETATM    1  C14   D T 601      -1.149 -10.759  -1.548  1.00 17.92     0.728 A 
HETATM    2  N15   D T 601      -0.254 -10.081  -0.801  1.00 19.07    -0.044 NA
HETATM    3  C16   D T 601      -0.447  -8.843  -0.327  1.00 18.16     0.163 A 
HETATM    4  C17   D T 601      -1.644  -8.200  -0.651  1.00 16.80     0.030 A 
HETATM    5  C18   D T 601      -2.557  -8.879  -1.460  1.00 18.08     0.151 A 
HETATM    6  N19   D T 601      -2.289 -10.131  -1.885  1.00 16.91    -0.074 NA
HETATM    7  C20   D T 601      -1.879  -6.890  -0.189  1.00 17.65     0.034 A 
HETATM    8  C21   D T 601      -0.924  -6.244   0.611  1.00 18.53     0.047 A 
HETATM    9  C22   D T 601       0.273  -6.942   0.904  1.00 19.48     0.260 A 
HETATM   10  O23   D T 601       1.099  -6.302   1.589  1.00 21.52    -0.267 OA
HETATM   11  N24   D T 601       0.502  -8.227   0.450  1.00 19.49    -0.301 N 
HETATM   12  C25   D T 601       1.710  -8.975   0.761  1.00 20.07     0.161 C 
ENDROOT
BRANCH   1  13
HETATM   13  N13   D T 601      -0.871 -12.005  -1.963  1.00 20.14    -0.188 N 
HETATM   14 1H13   D T 601      -1.433 -12.326  -2.613  1.00 24.16     0.184 HD
BRANCH  13  15
HETATM   15  C12   D T 601       0.119 -12.880  -1.573  1.00 24.69     0.049 A 
HETATM   16  C11   D T 601      -0.145 -14.263  -1.757  1.00 26.89     0.033 A 
HETATM   17  C10   D T 601       0.821 -15.230  -1.403  1.00 28.95     0.039 A 
HETATM   18  C09   D T 601       2.066 -14.820  -0.879  1.00 30.95     0.069 A 
HETATM   19  C35   D T 601       2.339 -13.449  -0.723  1.00 28.80     0.039 A 
HETATM   20  C34   D T 601       1.369 -12.499  -1.060  1.00 26.81     0.033 A 
BRANCH  18  21
HETATM   21  O08   D T 601       3.027 -15.721  -0.574  1.00 36.09    -0.350 OA
BRANCH  21  22
HETATM   22  C07   D T 601       3.834 -15.394   0.591  1.00 42.63     0.195 C 
BRANCH  22  23
HETATM   23  C06   D T 601       4.207 -16.714   1.336  1.00 46.85     0.143 C 
BRANCH  23  24
HETATM   24  N03   D T 601       4.339 -17.915   0.427  1.00 51.06    -0.411 N 
BRANCH  24  25
HETATM   25  C02   D T 601       3.251 -18.981   0.336  1.00 53.85     0.112 C 
HETATM   26  C01   D T 601       1.957 -18.673  -0.486  1.00 52.69     0.026 C 
ENDBRANCH  24  25
BRANCH  24  27
HETATM   27  C04   D T 601       5.538 -17.940  -0.483  1.00 47.80     0.112 C 
HETATM   28  C05   D T 601       5.670 -16.835  -1.567  1.00 44.89     0.026 C 
ENDBRANCH  24  27
ENDBRANCH  23  24
ENDBRANCH  22  23
ENDBRANCH  21  22
ENDBRANCH  18  21
ENDBRANCH  13  15
ENDBRANCH   1  13
BRANCH   8  29
HETATM   29  C26   D T 601      -1.149  -4.920   1.108  1.00 21.63     0.023 A 
HETATM   30  C27   D T 601      -2.010  -4.709   2.221  1.00 22.75     0.046 A 
HETATM   31 CL28   D T 601      -2.816  -6.010   2.933  1.00 22.59    -0.083 Cl
HETATM   32  C29   D T 601      -2.254  -3.411   2.742  1.00 24.08     0.025 A 
HETATM   33  C30   D T 601      -1.592  -2.297   2.178  1.00 25.63     0.003 A 
HETATM   34  C31   D T 601      -0.721  -2.489   1.096  1.00 25.41     0.025 A 
HETATM   35  C32   D T 601      -0.502  -3.786   0.566  1.00 23.77     0.046 A 
HETATM   36 CL33   D T 601       0.555  -3.949  -0.745  1.00 25.94    -0.083 Cl
ENDBRANCH   8  29
TORSDOF 9
