REMARK  9 active torsions:
REMARK  status: ('A' for Active; 'I' for Inactive)
REMARK    1  A    between atoms: C02_2  and  N03_3 
REMARK    2  A    between atoms: N03_3  and  C04_4 
REMARK    3  A    between atoms: N03_3  and  C06_6 
REMARK    4  A    between atoms: C06_6  and  C07_7 
REMARK    5  A    between atoms: C07_7  and  O08_8 
REMARK    6  A    between atoms: O08_8  and  C09_9 
REMARK    7  A    between atoms: C12_12  and  N13_13 
REMARK    8  A    between atoms: N13_13  and  C14_14 
REMARK    9  A    between atoms: C21_21  and  C26_26 
ROOT
HETATM    1  C14   D T 601      -3.544  -3.030 -11.393  1.00 17.92     0.728 A 
HETATM    2  N15   D T 601      -2.927  -1.834 -11.462  1.00 19.07    -0.044 NA
HETATM    3  C16   D T 601      -1.602  -1.660 -11.367  1.00 18.16     0.163 A 
HETATM    4  C17   D T 601      -0.809  -2.790 -11.154  1.00 16.80     0.030 A 
HETATM    5  C18   D T 601      -1.446  -4.028 -11.038  1.00 18.08     0.151 A 
HETATM    6  N19   D T 601      -2.787  -4.116 -11.160  1.00 16.91    -0.074 NA
HETATM    7  C20   D T 601       0.587  -2.649 -11.028  1.00 17.65     0.034 A 
HETATM    8  C21   D T 601       1.179  -1.381 -11.138  1.00 18.53     0.047 A 
HETATM    9  C22   D T 601       0.326  -0.270 -11.349  1.00 19.48     0.260 A 
HETATM   10  O23   D T 601       0.907   0.834 -11.403  1.00 21.52    -0.267 OA
HETATM   11  N24   D T 601      -1.043  -0.410 -11.473  1.00 19.49    -0.301 N 
HETATM   12  C25   D T 601      -1.936   0.711 -11.718  1.00 20.07     0.161 C 
ENDROOT
BRANCH   1  13
HETATM   13  N13   D T 601      -4.878  -3.105 -11.518  1.00 20.14    -0.188 N 
HETATM   14 1H13   D T 601      -5.241  -3.912 -11.275  1.00 24.16     0.184 HD
BRANCH  13  15
HETATM   15  C12   D T 601      -5.793  -2.170 -11.951  1.00 24.69     0.049 A 
HETATM   16  C11   D T 601      -7.008  -2.669 -12.489  1.00 26.89     0.033 A 
HETATM   17  C10   D T 601      -8.010  -1.782 -12.940  1.00 28.95     0.039 A 
HETATM   18  C09   D T 601      -7.812  -0.388 -12.837  1.00 30.95     0.069 A 
HETATM   19  C35   D T 601      -6.620   0.107 -12.277  1.00 28.80     0.039 A 
HETATM   20  C34   D T 601      -5.626  -0.780 -11.851  1.00 26.81     0.033 A 
BRANCH  18  21
HETATM   21  O08   D T 601      -8.771   0.484 -13.218  1.00 36.09    -0.350 OA
BRANCH  21  22
HETATM   22  C07   D T 601      -8.285   1.714 -13.822  1.00 42.63     0.195 C 
BRANCH  22  23
HETATM   23  C06   D T 601      -9.285   2.163 -14.933  1.00 46.85     0.143 C 
BRANCH  23  24
HETATM   24  N03   D T 601     -10.720   1.770 -14.662  1.00 51.06    -0.411 N 
BRANCH  24  25
HETATM   25  C02   D T 601     -11.384   0.598 -15.379  1.00 53.85     0.112 C 
HETATM   26  C01   D T 601     -11.043  -0.858 -14.922  1.00 52.69     0.026 C 
ENDBRANCH  24  25
BRANCH  24  27
HETATM   27  C04   D T 601     -11.421   2.511 -13.555  1.00 47.80     0.112 C 
HETATM   28  C05   D T 601     -10.881   2.363 -12.106  1.00 44.89     0.026 C 
ENDBRANCH  24  27
ENDBRANCH  23  24
ENDBRANCH  22  23
ENDBRANCH  21  22
ENDBRANCH  18  21
ENDBRANCH  13  15
ENDBRANCH   1  13
BRANCH   8  29
HETATM   29  C26   D T 601       2.598  -1.216 -11.033  1.00 21.63     0.023 A 
HETATM   30  C27   D T 601       3.441  -1.544 -12.131  1.00 22.75     0.046 A 
HETATM   31 CL28   D T 601       2.784  -2.181 -13.550  1.00 22.59    -0.083 Cl
HETATM   32  C29   D T 601       4.851  -1.390 -12.063  1.00 24.08     0.025 A 
HETATM   33  C30   D T 601       5.438  -0.853 -10.896  1.00 25.63     0.003 A 
HETATM   34  C31   D T 601       4.620  -0.501  -9.813  1.00 25.41     0.025 A 
HETATM   35  C32   D T 601       3.216  -0.681  -9.879  1.00 23.77     0.046 A 
HETATM   36 CL33   D T 601       2.285  -0.244  -8.535  1.00 25.94    -0.083 Cl
ENDBRANCH   8  29
TORSDOF 9
