REMARK  9 active torsions:
REMARK  status: ('A' for Active; 'I' for Inactive)
REMARK    1  A    between atoms: C02_2  and  N03_3 
REMARK    2  A    between atoms: N03_3  and  C04_4 
REMARK    3  A    between atoms: N03_3  and  C06_6 
REMARK    4  A    between atoms: C06_6  and  C07_7 
REMARK    5  A    between atoms: C07_7  and  O08_8 
REMARK    6  A    between atoms: O08_8  and  C09_9 
REMARK    7  A    between atoms: C12_12  and  N13_13 
REMARK    8  A    between atoms: N13_13  and  C14_14 
REMARK    9  A    between atoms: C21_21  and  C26_26 
ROOT
HETATM    1  C14   D T 601       0.918  -4.731 -11.182  1.00 17.92     0.728 A 
HETATM    2  N15   D T 601       0.700  -3.475 -11.622  1.00 19.07    -0.044 NA
HETATM    3  C16   D T 601       1.574  -2.467 -11.497  1.00 18.16     0.163 A 
HETATM    4  C17   D T 601       2.780  -2.728 -10.844  1.00 16.80     0.030 A 
HETATM    5  C18   D T 601       2.995  -4.015 -10.348  1.00 18.08     0.151 A 
HETATM    6  N19   D T 601       2.066  -4.977 -10.528  1.00 16.91    -0.074 NA
HETATM    7  C20   D T 601       3.720  -1.691 -10.675  1.00 17.65     0.034 A 
HETATM    8  C21   D T 601       3.452  -0.409 -11.179  1.00 18.53     0.047 A 
HETATM    9  C22   D T 601       2.210  -0.201 -11.828  1.00 19.48     0.260 A 
HETATM   10  O23   D T 601       2.014   0.967 -12.224  1.00 21.52    -0.267 OA
HETATM   11  N24   D T 601       1.290  -1.219 -11.995  1.00 19.49    -0.301 N 
HETATM   12  C25   D T 601       0.022  -1.038 -12.683  1.00 20.07     0.161 C 
ENDROOT
BRANCH   1  13
HETATM   13  N13   D T 601      -0.014  -5.679 -11.370  1.00 20.14    -0.188 N 
HETATM   14 1H13   D T 601       0.119  -6.447 -10.886  1.00 24.16     0.184 HD
BRANCH  13  15
HETATM   15  C12   D T 601      -1.136  -5.688 -12.169  1.00 24.69     0.049 A 
HETATM   16  C11   D T 601      -1.611  -6.959 -12.585  1.00 26.89     0.033 A 
HETATM   17  C10   D T 601      -2.766  -7.065 -13.390  1.00 28.95     0.039 A 
HETATM   18  C09   D T 601      -3.467  -5.899 -13.769  1.00 30.95     0.069 A 
HETATM   19  C35   D T 601      -3.013  -4.641 -13.333  1.00 28.80     0.039 A 
HETATM   20  C34   D T 601      -1.857  -4.546 -12.551  1.00 26.81     0.033 A 
BRANCH  18  21
HETATM   21  O08   D T 601      -4.600  -5.972 -14.500  1.00 36.09    -0.350 OA
BRANCH  21  22
HETATM   22  C07   D T 601      -4.788  -4.897 -15.461  1.00 42.63     0.195 C 
BRANCH  22  23
HETATM   23  C06   D T 601      -5.498  -5.467 -16.729  1.00 46.85     0.143 C 
BRANCH  23  24
HETATM   24  N03   D T 601      -6.429  -6.623 -16.443  1.00 51.06    -0.411 N 
BRANCH  24  25
HETATM   25  C02   D T 601      -6.040  -8.067 -16.748  1.00 53.85     0.112 C 
HETATM   26  C01   D T 601      -5.051  -8.803 -15.785  1.00 52.69     0.026 C 
ENDBRANCH  24  25
BRANCH  24  27
HETATM   27  C04   D T 601      -7.708  -6.292 -15.720  1.00 47.80     0.112 C 
HETATM   28  C05   D T 601      -7.618  -5.726 -14.276  1.00 44.89     0.026 C 
ENDBRANCH  24  27
ENDBRANCH  23  24
ENDBRANCH  22  23
ENDBRANCH  21  22
ENDBRANCH  18  21
ENDBRANCH  13  15
ENDBRANCH   1  13
BRANCH   8  29
HETATM   29  C26   D T 601       4.399   0.655 -11.036  1.00 21.63     0.023 A 
HETATM   30  C27   D T 601       5.540   0.719 -11.884  1.00 22.75     0.046 A 
HETATM   31 CL28   D T 601       5.816  -0.487 -13.032  1.00 22.59    -0.083 Cl
HETATM   32  C29   D T 601       6.497   1.761 -11.772  1.00 24.08     0.025 A 
HETATM   33  C30   D T 601       6.297   2.793 -10.828  1.00 25.63     0.003 A 
HETATM   34  C31   D T 601       5.167   2.760 -10.000  1.00 25.41     0.025 A 
HETATM   35  C32   D T 601       4.228   1.703 -10.102  1.00 23.77     0.046 A 
HETATM   36 CL33   D T 601       2.888   1.717  -9.068  1.00 25.94    -0.083 Cl
ENDBRANCH   8  29
TORSDOF 9
