REMARK  9 active torsions:
REMARK  status: ('A' for Active; 'I' for Inactive)
REMARK    1  A    between atoms: C02_2  and  N03_3 
REMARK    2  A    between atoms: N03_3  and  C04_4 
REMARK    3  A    between atoms: N03_3  and  C06_6 
REMARK    4  A    between atoms: C06_6  and  C07_7 
REMARK    5  A    between atoms: C07_7  and  O08_8 
REMARK    6  A    between atoms: O08_8  and  C09_9 
REMARK    7  A    between atoms: C12_12  and  N13_13 
REMARK    8  A    between atoms: N13_13  and  C14_14 
REMARK    9  A    between atoms: C21_21  and  C26_26 
ROOT
HETATM    1  C14   D T 601      -4.573  -1.750  13.782  1.00 17.92     0.728 A 
HETATM    2  N15   D T 601      -3.575  -0.846  13.850  1.00 19.07    -0.044 NA
HETATM    3  C16   D T 601      -3.706   0.451  13.541  1.00 18.16     0.163 A 
HETATM    4  C17   D T 601      -4.954   0.891  13.092  1.00 16.80     0.030 A 
HETATM    5  C18   D T 601      -5.981  -0.049  12.978  1.00 18.08     0.151 A 
HETATM    6  N19   D T 601      -5.766  -1.335  13.323  1.00 16.91    -0.074 NA
HETATM    7  C20   D T 601      -5.131   2.243  12.738  1.00 17.65     0.034 A 
HETATM    8  C21   D T 601      -4.063   3.147  12.857  1.00 18.53     0.047 A 
HETATM    9  C22   D T 601      -2.820   2.644  13.313  1.00 19.48     0.260 A 
HETATM   10  O23   D T 601      -1.901   3.488  13.364  1.00 21.52    -0.267 OA
HETATM   11  N24   D T 601      -2.649   1.318  13.661  1.00 19.49    -0.301 N 
HETATM   12  C25   D T 601      -1.391   0.784  14.159  1.00 20.07     0.161 C 
ENDROOT
BRANCH   1  13
HETATM   13  N13   D T 601      -4.347  -3.027  14.130  1.00 20.14    -0.188 N 
HETATM   14 1H13   D T 601      -5.007  -3.613  13.882  1.00 24.16     0.184 HD
BRANCH  13  15
HETATM   15  C12   D T 601      -3.287  -3.600  14.799  1.00 24.69     0.049 A 
HETATM   16  C11   D T 601      -3.552  -4.809  15.494  1.00 26.89     0.033 A 
HETATM   17  C10   D T 601      -2.521  -5.477  16.190  1.00 28.95     0.039 A 
HETATM   18  C09   D T 601      -1.212  -4.948  16.181  1.00 30.95     0.069 A 
HETATM   19  C35   D T 601      -0.943  -3.765  15.469  1.00 28.80     0.039 A 
HETATM   20  C34   D T 601      -1.975  -3.102  14.797  1.00 26.81     0.033 A 
BRANCH  18  21
HETATM   21  O08   D T 601      -0.196  -5.588  16.801  1.00 36.09    -0.350 OA
BRANCH  21  22
HETATM   22  C07   D T 601       0.796  -4.723  17.420  1.00 42.63     0.195 C 
BRANCH  22  23
HETATM   23  C06   D T 601       1.318  -5.402  18.724  1.00 46.85     0.143 C 
BRANCH  23  24
HETATM   24  N03   D T 601       1.313  -6.914  18.674  1.00 51.06    -0.411 N 
BRANCH  24  25
HETATM   25  C02   D T 601       0.247  -7.741  19.386  1.00 53.85     0.112 C 
HETATM   26  C01   D T 601      -1.176  -7.851  18.746  1.00 52.69     0.026 C 
ENDBRANCH  24  25
BRANCH  24  27
HETATM   27  C04   D T 601       2.337  -7.558  17.777  1.00 47.80     0.112 C 
HETATM   28  C05   D T 601       2.256  -7.291  16.248  1.00 44.89     0.026 C 
ENDBRANCH  24  27
ENDBRANCH  23  24
ENDBRANCH  22  23
ENDBRANCH  21  22
ENDBRANCH  18  21
ENDBRANCH  13  15
ENDBRANCH   1  13
BRANCH   8  29
HETATM   29  C26   D T 601      -4.225   4.530  12.522  1.00 21.63     0.023 A 
HETATM   30  C27   D T 601      -4.883   5.414  13.421  1.00 22.75     0.046 A 
HETATM   31 CL28   D T 601      -5.527   4.832  14.870  1.00 22.59    -0.083 Cl
HETATM   32  C29   D T 601      -5.057   6.791  13.123  1.00 24.08     0.025 A 
HETATM   33  C30   D T 601      -4.526   7.317  11.925  1.00 25.63     0.003 A 
HETATM   34  C31   D T 601      -3.853   6.466  11.037  1.00 25.41     0.025 A 
HETATM   35  C32   D T 601      -3.704   5.087  11.331  1.00 23.77     0.046 A 
HETATM   36 CL33   D T 601      -2.888   4.111  10.215  1.00 25.94    -0.083 Cl
ENDBRANCH   8  29
TORSDOF 9
