REMARK  9 active torsions:
REMARK  status: ('A' for Active; 'I' for Inactive)
REMARK    1  A    between atoms: C02_2  and  N03_3 
REMARK    2  A    between atoms: N03_3  and  C04_4 
REMARK    3  A    between atoms: N03_3  and  C06_6 
REMARK    4  A    between atoms: C06_6  and  C07_7 
REMARK    5  A    between atoms: C07_7  and  O08_8 
REMARK    6  A    between atoms: O08_8  and  C09_9 
REMARK    7  A    between atoms: C12_12  and  N13_13 
REMARK    8  A    between atoms: N13_13  and  C14_14 
REMARK    9  A    between atoms: C21_21  and  C26_26 
ROOT
HETATM    1  C14   D T 601       6.224   3.758   1.816  1.00 17.92     0.728 A 
HETATM    2  N15   D T 601       5.842   3.702   0.524  1.00 19.07    -0.044 NA
HETATM    3  C16   D T 601       5.033   4.593  -0.065  1.00 18.16     0.163 A 
HETATM    4  C17   D T 601       4.529   5.634   0.718  1.00 16.80     0.030 A 
HETATM    5  C18   D T 601       4.886   5.674   2.068  1.00 18.08     0.151 A 
HETATM    6  N19   D T 601       5.718   4.742   2.579  1.00 16.91    -0.074 NA
HETATM    7  C20   D T 601       3.660   6.582   0.143  1.00 17.65     0.034 A 
HETATM    8  C21   D T 601       3.319   6.491  -1.216  1.00 18.53     0.047 A 
HETATM    9  C22   D T 601       3.856   5.412  -1.960  1.00 19.48     0.260 A 
HETATM   10  O23   D T 601       3.489   5.365  -3.153  1.00 21.52    -0.267 OA
HETATM   11  N24   D T 601       4.710   4.484  -1.395  1.00 19.49    -0.301 N 
HETATM   12  C25   D T 601       5.296   3.384  -2.145  1.00 20.07     0.161 C 
ENDROOT
BRANCH   1  13
HETATM   13  N13   D T 601       7.053   2.826   2.312  1.00 20.14    -0.188 N 
HETATM   14 1H13   D T 601       7.117   2.819   3.227  1.00 24.16     0.184 HD
BRANCH  13  15
HETATM   15  C12   D T 601       7.825   1.880   1.673  1.00 24.69     0.049 A 
HETATM   16  C11   D T 601       8.975   1.422   2.366  1.00 26.89     0.033 A 
HETATM   17  C10   D T 601       9.812   0.439   1.795  1.00 28.95     0.039 A 
HETATM   18  C09   D T 601       9.495  -0.106   0.532  1.00 30.95     0.069 A 
HETATM   19  C35   D T 601       8.340   0.328  -0.144  1.00 28.80     0.039 A 
HETATM   20  C34   D T 601       7.526   1.315   0.423  1.00 26.81     0.033 A 
BRANCH  18  21
HETATM   21  O08   D T 601      10.252  -1.080  -0.019  1.00 36.09    -0.350 OA
BRANCH  21  22
HETATM   22  C07   D T 601      10.387  -1.015  -1.466  1.00 42.63     0.195 C 
BRANCH  22  23
HETATM   23  C06   D T 601      11.816  -1.500  -1.865  1.00 46.85     0.143 C 
BRANCH  23  24
HETATM   24  N03   D T 601      12.397  -2.534  -0.927  1.00 51.06    -0.411 N 
BRANCH  24  25
HETATM   25  C02   D T 601      13.460  -2.178   0.108  1.00 53.85     0.112 C 
HETATM   26  C01   D T 601      13.024  -1.439   1.416  1.00 52.69     0.026 C 
ENDBRANCH  24  25
BRANCH  24  27
HETATM   27  C04   D T 601      11.780  -3.907  -0.978  1.00 47.80     0.112 C 
HETATM   28  C05   D T 601      10.288  -4.064  -0.574  1.00 44.89     0.026 C 
ENDBRANCH  24  27
ENDBRANCH  23  24
ENDBRANCH  22  23
ENDBRANCH  21  22
ENDBRANCH  18  21
ENDBRANCH  13  15
ENDBRANCH   1  13
BRANCH   8  29
HETATM   29  C26   D T 601       2.453   7.454  -1.827  1.00 21.63     0.023 A 
HETATM   30  C27   D T 601       2.948   8.738  -2.186  1.00 22.75     0.046 A 
HETATM   31 CL28   D T 601       4.548   9.160  -1.849  1.00 22.59    -0.083 Cl
HETATM   32  C29   D T 601       2.118   9.715  -2.796  1.00 24.08     0.025 A 
HETATM   33  C30   D T 601       0.776   9.398  -3.102  1.00 25.63     0.003 A 
HETATM   34  C31   D T 601       0.277   8.128  -2.777  1.00 25.41     0.025 A 
HETATM   35  C32   D T 601       1.105   7.166  -2.145  1.00 23.77     0.046 A 
HETATM   36 CL33   D T 601       0.441   5.656  -1.772  1.00 25.94    -0.083 Cl
ENDBRANCH   8  29
TORSDOF 9
