REMARK  9 active torsions:
REMARK  status: ('A' for Active; 'I' for Inactive)
REMARK    1  A    between atoms: C02_2  and  N03_3 
REMARK    2  A    between atoms: N03_3  and  C04_4 
REMARK    3  A    between atoms: N03_3  and  C06_6 
REMARK    4  A    between atoms: C06_6  and  C07_7 
REMARK    5  A    between atoms: C07_7  and  O08_8 
REMARK    6  A    between atoms: O08_8  and  C09_9 
REMARK    7  A    between atoms: C12_12  and  N13_13 
REMARK    8  A    between atoms: N13_13  and  C14_14 
REMARK    9  A    between atoms: C21_21  and  C26_26 
ROOT
HETATM    1  C14   D T 601      -5.066  11.623 -25.568  1.00 17.92     0.728 A 
HETATM    2  N15   D T 601      -5.999  12.464 -25.078  1.00 19.07    -0.044 NA
HETATM    3  C16   D T 601      -5.850  13.193 -23.964  1.00 18.16     0.163 A 
HETATM    4  C17   D T 601      -4.660  13.051 -23.246  1.00 16.80     0.030 A 
HETATM    5  C18   D T 601      -3.707  12.149 -23.725  1.00 18.08     0.151 A 
HETATM    6  N19   D T 601      -3.933  11.463 -24.864  1.00 16.91    -0.074 NA
HETATM    7  C20   D T 601      -4.470  13.784 -22.058  1.00 17.65     0.034 A 
HETATM    8  C21   D T 601      -5.464  14.668 -21.610  1.00 18.53     0.047 A 
HETATM    9  C22   D T 601      -6.652  14.768 -22.375  1.00 19.48     0.260 A 
HETATM   10  O23   D T 601      -7.513  15.543 -21.908  1.00 21.52    -0.267 OA
HETATM   11  N24   D T 601      -6.836  14.049 -23.541  1.00 19.49    -0.301 N 
HETATM   12  C25   D T 601      -8.034  14.156 -24.359  1.00 20.07     0.161 C 
ENDROOT
BRANCH   1  13
HETATM   13  N13   D T 601      -5.302  10.948 -26.704  1.00 20.14    -0.188 N 
HETATM   14 1H13   D T 601      -4.713  10.264 -26.872  1.00 24.16     0.184 HD
BRANCH  13  15
HETATM   15  C12   D T 601      -6.281  11.113 -27.659  1.00 24.69     0.049 A 
HETATM   16  C11   D T 601      -5.978  10.654 -28.968  1.00 26.89     0.033 A 
HETATM   17  C10   D T 601      -6.930  10.765 -30.005  1.00 28.95     0.039 A 
HETATM   18  C09   D T 601      -8.200  11.320 -29.735  1.00 30.95     0.069 A 
HETATM   19  C35   D T 601      -8.510  11.750 -28.433  1.00 28.80     0.039 A 
HETATM   20  C34   D T 601      -7.554  11.652 -27.416  1.00 26.81     0.033 A 
BRANCH  18  21
HETATM   21  O08   D T 601      -9.147  11.398 -30.697  1.00 36.09    -0.350 OA
BRANCH  21  22
HETATM   22  C07   D T 601      -9.995  12.577 -30.636  1.00 42.63     0.195 C 
BRANCH  22  23
HETATM   23  C06   D T 601     -10.358  13.017 -32.089  1.00 46.85     0.143 C 
BRANCH  23  24
HETATM   24  N03   D T 601     -10.434  11.874 -33.075  1.00 51.06    -0.411 N 
BRANCH  24  25
HETATM   25  C02   D T 601      -9.318  11.599 -34.079  1.00 53.85     0.112 C 
HETATM   26  C01   D T 601      -8.008  10.903 -33.583  1.00 52.69     0.026 C 
ENDBRANCH  24  25
BRANCH  24  27
HETATM   27  C04   D T 601     -11.605  10.939 -32.931  1.00 47.80     0.112 C 
HETATM   28  C05   D T 601     -11.732  10.106 -31.625  1.00 44.89     0.026 C 
ENDBRANCH  24  27
ENDBRANCH  23  24
ENDBRANCH  22  23
ENDBRANCH  21  22
ENDBRANCH  18  21
ENDBRANCH  13  15
ENDBRANCH   1  13
BRANCH   8  29
HETATM   29  C26   D T 601      -5.286  15.438 -20.416  1.00 21.63     0.023 A 
HETATM   30  C27   D T 601      -4.463  16.599 -20.428  1.00 22.75     0.046 A 
HETATM   31 CL28   D T 601      -3.647  17.051 -21.835  1.00 22.59    -0.083 Cl
HETATM   32  C29   D T 601      -4.267  17.388 -19.264  1.00 24.08     0.025 A 
HETATM   33  C30   D T 601      -4.938  17.046 -18.069  1.00 25.63     0.003 A 
HETATM   34  C31   D T 601      -5.772  15.919 -18.045  1.00 25.41     0.025 A 
HETATM   35  C32   D T 601      -5.944  15.123 -19.205  1.00 23.77     0.046 A 
HETATM   36 CL33   D T 601      -6.958  13.772 -19.109  1.00 25.94    -0.083 Cl
ENDBRANCH   8  29
TORSDOF 9
