REMARK  9 active torsions:
REMARK  status: ('A' for Active; 'I' for Inactive)
REMARK    1  A    between atoms: C02_2  and  N03_3 
REMARK    2  A    between atoms: N03_3  and  C04_4 
REMARK    3  A    between atoms: N03_3  and  C06_6 
REMARK    4  A    between atoms: C06_6  and  C07_7 
REMARK    5  A    between atoms: C07_7  and  O08_8 
REMARK    6  A    between atoms: O08_8  and  C09_9 
REMARK    7  A    between atoms: C12_12  and  N13_13 
REMARK    8  A    between atoms: N13_13  and  C14_14 
REMARK    9  A    between atoms: C21_21  and  C26_26 
ROOT
HETATM    1  C14   D T 601       8.549   7.438  -6.768  1.00 17.92     0.728 A 
HETATM    2  N15   D T 601       9.296   6.323  -6.896  1.00 19.07    -0.044 NA
HETATM    3  C16   D T 601       8.966   5.275  -7.662  1.00 18.16     0.163 A 
HETATM    4  C17   D T 601       7.753   5.329  -8.354  1.00 16.80     0.030 A 
HETATM    5  C18   D T 601       6.954   6.463  -8.192  1.00 18.08     0.151 A 
HETATM    6  N19   D T 601       7.368   7.480  -7.409  1.00 16.91    -0.074 NA
HETATM    7  C20   D T 601       7.358   4.240  -9.156  1.00 17.65     0.034 A 
HETATM    8  C21   D T 601       8.191   3.116  -9.276  1.00 18.53     0.047 A 
HETATM    9  C22   D T 601       9.406   3.114  -8.549  1.00 19.48     0.260 A 
HETATM   10  O23   D T 601      10.087   2.074  -8.667  1.00 21.52    -0.267 OA
HETATM   11  N24   D T 601       9.792   4.184  -7.763  1.00 19.49    -0.301 N 
HETATM   12  C25   D T 601      11.048   4.217  -7.030  1.00 20.07     0.161 C 
ENDROOT
BRANCH   1  13
HETATM   13  N13   D T 601       8.973   8.445  -5.988  1.00 20.14    -0.188 N 
HETATM   14 1H13   D T 601       8.337   9.078  -5.801  1.00 24.16     0.184 HD
BRANCH  13  15
HETATM   15  C12   D T 601      10.207   8.682  -5.422  1.00 24.69     0.049 A 
HETATM   16  C11   D T 601      10.522  10.034  -5.126  1.00 26.89     0.033 A 
HETATM   17  C10   D T 601      11.756  10.368  -4.527  1.00 28.95     0.039 A 
HETATM   18  C09   D T 601      12.678   9.349  -4.203  1.00 30.95     0.069 A 
HETATM   19  C35   D T 601      12.354   8.007  -4.470  1.00 28.80     0.039 A 
HETATM   20  C34   D T 601      11.136   7.688  -5.080  1.00 26.81     0.033 A 
BRANCH  18  21
HETATM   21  O08   D T 601      13.847   9.634  -3.589  1.00 36.09    -0.350 OA
BRANCH  21  22
HETATM   22  C07   D T 601      14.975   8.810  -3.992  1.00 42.63     0.195 C 
BRANCH  22  23
HETATM   23  C06   D T 601      16.271   9.679  -3.974  1.00 46.85     0.143 C 
BRANCH  23  24
HETATM   24  N03   D T 601      16.255  10.783  -2.941  1.00 51.06    -0.411 N 
BRANCH  24  25
HETATM   25  C02   D T 601      16.004  12.240  -3.320  1.00 53.85     0.112 C 
HETATM   26  C01   D T 601      14.541  12.698  -3.632  1.00 52.69     0.026 C 
ENDBRANCH  24  25
BRANCH  24  27
HETATM   27  C04   D T 601      16.370  10.357  -1.501  1.00 47.80     0.112 C 
HETATM   28  C05   D T 601      15.240   9.479  -0.896  1.00 44.89     0.026 C 
ENDBRANCH  24  27
ENDBRANCH  23  24
ENDBRANCH  22  23
ENDBRANCH  21  22
ENDBRANCH  18  21
ENDBRANCH  13  15
ENDBRANCH   1  13
BRANCH   8  29
HETATM   29  C26   D T 601       7.820   2.006 -10.101  1.00 21.63     0.023 A 
HETATM   30  C27   D T 601       7.965   2.082 -11.514  1.00 22.75     0.046 A 
HETATM   31 CL28   D T 601       8.525   3.501 -12.237  1.00 22.59    -0.083 Cl
HETATM   32  C29   D T 601       7.610   1.000 -12.361  1.00 24.08     0.025 A 
HETATM   33  C30   D T 601       7.144  -0.207 -11.793  1.00 25.63     0.003 A 
HETATM   34  C31   D T 601       7.018  -0.309 -10.401  1.00 25.41     0.025 A 
HETATM   35  C32   D T 601       7.351   0.785  -9.563  1.00 23.77     0.046 A 
HETATM   36 CL33   D T 601       7.170   0.601  -7.890  1.00 25.94    -0.083 Cl
ENDBRANCH   8  29
TORSDOF 9
