REMARK  9 active torsions:
REMARK  status: ('A' for Active; 'I' for Inactive)
REMARK    1  A    between atoms: C02_2  and  N03_3 
REMARK    2  A    between atoms: N03_3  and  C04_4 
REMARK    3  A    between atoms: N03_3  and  C06_6 
REMARK    4  A    between atoms: C06_6  and  C07_7 
REMARK    5  A    between atoms: C07_7  and  O08_8 
REMARK    6  A    between atoms: O08_8  and  C09_9 
REMARK    7  A    between atoms: C12_12  and  N13_13 
REMARK    8  A    between atoms: N13_13  and  C14_14 
REMARK    9  A    between atoms: C21_21  and  C26_26 
ROOT
HETATM    1  C14   D T 601      -5.352  10.142 -13.868  1.00 17.92     0.728 A 
HETATM    2  N15   D T 601      -4.454  10.614 -12.979  1.00 19.07    -0.044 NA
HETATM    3  C16   D T 601      -3.323   9.983 -12.639  1.00 18.16     0.163 A 
HETATM    4  C17   D T 601      -3.068   8.740 -13.223  1.00 16.80     0.030 A 
HETATM    5  C18   D T 601      -4.014   8.225 -14.112  1.00 18.08     0.151 A 
HETATM    6  N19   D T 601      -5.123   8.933 -14.409  1.00 16.91    -0.074 NA
HETATM    7  C20   D T 601      -1.899   8.034 -12.879  1.00 17.65     0.034 A 
HETATM    8  C21   D T 601      -0.984   8.588 -11.969  1.00 18.53     0.047 A 
HETATM    9  C22   D T 601      -1.296   9.849 -11.404  1.00 19.48     0.260 A 
HETATM   10  O23   D T 601      -0.463  10.273 -10.576  1.00 21.52    -0.267 OA
HETATM   11  N24   D T 601      -2.443  10.541 -11.744  1.00 19.49    -0.301 N 
HETATM   12  C25   D T 601      -2.771  11.849 -11.200  1.00 20.07     0.161 C 
ENDROOT
BRANCH   1  13
HETATM   13  N13   D T 601      -6.450  10.857 -14.157  1.00 20.14    -0.188 N 
HETATM   14 1H13   D T 601      -7.097  10.396 -14.617  1.00 24.16     0.184 HD
BRANCH  13  15
HETATM   15  C12   D T 601      -6.766  12.168 -13.878  1.00 24.69     0.049 A 
HETATM   16  C11   D T 601      -7.700  12.797 -14.743  1.00 26.89     0.033 A 
HETATM   17  C10   D T 601      -8.097  14.133 -14.520  1.00 28.95     0.039 A 
HETATM   18  C09   D T 601      -7.575  14.846 -13.419  1.00 30.95     0.069 A 
HETATM   19  C35   D T 601      -6.671  14.215 -12.546  1.00 28.80     0.039 A 
HETATM   20  C34   D T 601      -6.270  12.896 -12.785  1.00 26.81     0.033 A 
BRANCH  18  21
HETATM   21  O08   D T 601      -7.970  16.111 -13.155  1.00 36.09    -0.350 OA
BRANCH  21  22
HETATM   22  C07   D T 601      -6.937  16.984 -12.621  1.00 42.63     0.195 C 
BRANCH  22  23
HETATM   23  C06   D T 601      -7.163  18.430 -13.165  1.00 46.85     0.143 C 
BRANCH  23  24
HETATM   24  N03   D T 601      -8.614  18.767 -13.427  1.00 51.06    -0.411 N 
BRANCH  24  25
HETATM   25  C02   D T 601      -9.194  18.791 -14.838  1.00 53.85     0.112 C 
HETATM   26  C01   D T 601      -9.525  17.434 -15.542  1.00 52.69     0.026 C 
ENDBRANCH  24  25
BRANCH  24  27
HETATM   27  C04   D T 601      -9.489  18.950 -12.216  1.00 47.80     0.112 C 
HETATM   28  C05   D T 601      -9.717  17.734 -11.276  1.00 44.89     0.026 C 
ENDBRANCH  24  27
ENDBRANCH  23  24
ENDBRANCH  22  23
ENDBRANCH  21  22
ENDBRANCH  18  21
ENDBRANCH  13  15
ENDBRANCH   1  13
BRANCH   8  29
HETATM   29  C26   D T 601       0.220   7.897 -11.618  1.00 21.63     0.023 A 
HETATM   30  C27   D T 601       1.330   7.894 -12.508  1.00 22.75     0.046 A 
HETATM   31 CL28   D T 601       1.221   8.660 -14.009  1.00 22.59    -0.083 Cl
HETATM   32  C29   D T 601       2.541   7.223 -12.191  1.00 24.08     0.025 A 
HETATM   33  C30   D T 601       2.674   6.578 -10.941  1.00 25.63     0.003 A 
HETATM   34  C31   D T 601       1.599   6.591 -10.042  1.00 25.41     0.025 A 
HETATM   35  C32   D T 601       0.385   7.242 -10.375  1.00 23.77     0.046 A 
HETATM   36 CL33   D T 601      -0.878   7.215  -9.249  1.00 25.94    -0.083 Cl
ENDBRANCH   8  29
TORSDOF 9
