REMARK  9 active torsions:
REMARK  status: ('A' for Active; 'I' for Inactive)
REMARK    1  A    between atoms: C02_2  and  N03_3 
REMARK    2  A    between atoms: N03_3  and  C04_4 
REMARK    3  A    between atoms: N03_3  and  C06_6 
REMARK    4  A    between atoms: C06_6  and  C07_7 
REMARK    5  A    between atoms: C07_7  and  O08_8 
REMARK    6  A    between atoms: O08_8  and  C09_9 
REMARK    7  A    between atoms: C12_12  and  N13_13 
REMARK    8  A    between atoms: N13_13  and  C14_14 
REMARK    9  A    between atoms: C21_21  and  C26_26 
ROOT
HETATM    1  C14   D T 601       2.373   2.921   9.383  1.00 17.92     0.728 A 
HETATM    2  N15   D T 601       2.491   4.185   8.930  1.00 19.07    -0.044 NA
HETATM    3  C16   D T 601       1.499   4.879   8.356  1.00 18.16     0.163 A 
HETATM    4  C17   D T 601       0.267   4.240   8.190  1.00 16.80     0.030 A 
HETATM    5  C18   D T 601       0.151   2.915   8.618  1.00 18.08     0.151 A 
HETATM    6  N19   D T 601       1.198   2.294   9.198  1.00 16.91    -0.074 NA
HETATM    7  C20   D T 601      -0.797   4.926   7.573  1.00 17.65     0.034 A 
HETATM    8  C21   D T 601      -0.627   6.253   7.147  1.00 18.53     0.047 A 
HETATM    9  C22   D T 601       0.644   6.849   7.337  1.00 19.48     0.260 A 
HETATM   10  O23   D T 601       0.745   8.016   6.906  1.00 21.52    -0.267 OA
HETATM   11  N24   D T 601       1.688   6.174   7.943  1.00 19.49    -0.301 N 
HETATM   12  C25   D T 601       2.992   6.774   8.174  1.00 20.07     0.161 C 
ENDROOT
BRANCH   1  13
HETATM   13  N13   D T 601       3.422   2.315   9.961  1.00 20.14    -0.188 N 
HETATM   14 1H13   D T 601       3.327   1.409  10.070  1.00 24.16     0.184 HD
BRANCH  13  15
HETATM   15  C12   D T 601       4.616   2.829  10.417  1.00 24.69     0.049 A 
HETATM   16  C11   D T 601       5.275   2.098  11.440  1.00 26.89     0.033 A 
HETATM   17  C10   D T 601       6.513   2.541  11.954  1.00 28.95     0.039 A 
HETATM   18  C09   D T 601       7.111   3.710  11.434  1.00 30.95     0.069 A 
HETATM   19  C35   D T 601       6.472   4.419  10.401  1.00 28.80     0.039 A 
HETATM   20  C34   D T 601       5.237   3.982   9.911  1.00 26.81     0.033 A 
BRANCH  18  21
HETATM   21  O08   D T 601       8.316   4.133  11.875  1.00 36.09    -0.350 OA
BRANCH  21  22
HETATM   22  C07   D T 601       8.479   5.576  11.942  1.00 42.63     0.195 C 
BRANCH  22  23
HETATM   23  C06   D T 601       9.380   5.928  13.168  1.00 46.85     0.143 C 
BRANCH  23  24
HETATM   24  N03   D T 601      10.402   4.866  13.503  1.00 51.06    -0.411 N 
BRANCH  24  25
HETATM   25  C02   D T 601      10.216   3.909  14.677  1.00 53.85     0.112 C 
HETATM   26  C01   D T 601       9.222   2.711  14.525  1.00 52.69     0.026 C 
ENDBRANCH  24  25
BRANCH  24  27
HETATM   27  C04   D T 601      11.551   4.713  12.542  1.00 47.80     0.112 C 
HETATM   28  C05   D T 601      11.245   4.265  11.086  1.00 44.89     0.026 C 
ENDBRANCH  24  27
ENDBRANCH  23  24
ENDBRANCH  22  23
ENDBRANCH  21  22
ENDBRANCH  18  21
ENDBRANCH  13  15
ENDBRANCH   1  13
BRANCH   8  29
HETATM   29  C26   D T 601      -1.700   6.977   6.536  1.00 21.63     0.023 A 
HETATM   30  C27   D T 601      -2.744   7.521   7.334  1.00 22.75     0.046 A 
HETATM   31 CL28   D T 601      -2.757   7.274   9.004  1.00 22.59    -0.083 Cl
HETATM   32  C29   D T 601      -3.822   8.247   6.761  1.00 24.08     0.025 A 
HETATM   33  C30   D T 601      -3.842   8.482   5.368  1.00 25.63     0.003 A 
HETATM   34  C31   D T 601      -2.809   7.974   4.569  1.00 25.41     0.025 A 
HETATM   35  C32   D T 601      -1.749   7.229   5.145  1.00 23.77     0.046 A 
HETATM   36 CL33   D T 601      -0.536   6.636   4.125  1.00 25.94    -0.083 Cl
ENDBRANCH   8  29
TORSDOF 9
