REMARK  9 active torsions:
REMARK  status: ('A' for Active; 'I' for Inactive)
REMARK    1  A    between atoms: C02_2  and  N03_3 
REMARK    2  A    between atoms: N03_3  and  C04_4 
REMARK    3  A    between atoms: N03_3  and  C06_6 
REMARK    4  A    between atoms: C06_6  and  C07_7 
REMARK    5  A    between atoms: C07_7  and  O08_8 
REMARK    6  A    between atoms: O08_8  and  C09_9 
REMARK    7  A    between atoms: C12_12  and  N13_13 
REMARK    8  A    between atoms: N13_13  and  C14_14 
REMARK    9  A    between atoms: C21_21  and  C26_26 
ROOT
HETATM    1  C14   D T 601      -7.149  12.645   0.500  1.00 17.92     0.728 A 
HETATM    2  N15   D T 601      -5.827  12.681   0.241  1.00 19.07    -0.044 NA
HETATM    3  C16   D T 601      -5.292  12.554  -0.981  1.00 18.16     0.163 A 
HETATM    4  C17   D T 601      -6.160  12.343  -2.054  1.00 16.80     0.030 A 
HETATM    5  C18   D T 601      -7.529  12.261  -1.787  1.00 18.08     0.151 A 
HETATM    6  N19   D T 601      -7.985  12.413  -0.526  1.00 16.91    -0.074 NA
HETATM    7  C20   D T 601      -5.639  12.184  -3.353  1.00 17.65     0.034 A 
HETATM    8  C21   D T 601      -4.253  12.260  -3.569  1.00 18.53     0.047 A 
HETATM    9  C22   D T 601      -3.420  12.472  -2.444  1.00 19.48     0.260 A 
HETATM   10  O23   D T 601      -2.197  12.494  -2.694  1.00 21.52    -0.267 OA
HETATM   11  N24   D T 601      -3.934  12.628  -1.170  1.00 19.49    -0.301 N 
HETATM   12  C25   D T 601      -3.101  12.874  -0.003  1.00 20.07     0.161 C 
ENDROOT
BRANCH   1  13
HETATM   13  N13   D T 601      -7.591  12.800   1.758  1.00 20.14    -0.188 N 
HETATM   14 1H13   D T 601      -8.472  12.578   1.885  1.00 24.16     0.184 HD
BRANCH  13  15
HETATM   15  C12   D T 601      -6.939  13.237   2.891  1.00 24.69     0.049 A 
HETATM   16  C11   D T 601      -7.745  13.810   3.909  1.00 26.89     0.033 A 
HETATM   17  C10   D T 601      -7.163  14.268   5.112  1.00 28.95     0.039 A 
HETATM   18  C09   D T 601      -5.772  14.138   5.312  1.00 30.95     0.069 A 
HETATM   19  C35   D T 601      -4.976  13.544   4.315  1.00 28.80     0.039 A 
HETATM   20  C34   D T 601      -5.560  13.111   3.120  1.00 26.81     0.033 A 
BRANCH  18  21
HETATM   21  O08   D T 601      -5.194  14.525   6.471  1.00 36.09    -0.350 OA
BRANCH  21  22
HETATM   22  C07   D T 601      -3.864  15.099   6.338  1.00 42.63     0.195 C 
BRANCH  22  23
HETATM   23  C06   D T 601      -3.688  16.224   7.405  1.00 46.85     0.143 C 
BRANCH  23  24
HETATM   24  N03   D T 601      -4.471  15.991   8.678  1.00 51.06    -0.411 N 
BRANCH  24  25
HETATM   25  C02   D T 601      -5.766  16.741   8.976  1.00 53.85     0.112 C 
HETATM   26  C01   D T 601      -7.079  16.300   8.249  1.00 52.69     0.026 C 
ENDBRANCH  24  25
BRANCH  24  27
HETATM   27  C04   D T 601      -3.980  14.887   9.576  1.00 47.80     0.112 C 
HETATM   28  C05   D T 601      -4.003  13.429   9.039  1.00 44.89     0.026 C 
ENDBRANCH  24  27
ENDBRANCH  23  24
ENDBRANCH  22  23
ENDBRANCH  21  22
ENDBRANCH  18  21
ENDBRANCH  13  15
ENDBRANCH   1  13
BRANCH   8  29
HETATM   29  C26   D T 601      -3.701  12.122  -4.883  1.00 21.63     0.023 A 
HETATM   30  C27   D T 601      -3.757  13.206  -5.803  1.00 22.75     0.046 A 
HETATM   31 CL28   D T 601      -4.521  14.649  -5.373  1.00 22.59    -0.083 Cl
HETATM   32  C29   D T 601      -3.217  13.105  -7.112  1.00 24.08     0.025 A 
HETATM   33  C30   D T 601      -2.563  11.917  -7.506  1.00 25.63     0.003 A 
HETATM   34  C31   D T 601      -2.477  10.846  -6.605  1.00 25.41     0.025 A 
HETATM   35  C32   D T 601      -3.040  10.946  -5.308  1.00 23.77     0.046 A 
HETATM   36 CL33   D T 601      -2.910   9.616  -4.271  1.00 25.94    -0.083 Cl
ENDBRANCH   8  29
TORSDOF 9
