REMARK  9 active torsions:
REMARK  status: ('A' for Active; 'I' for Inactive)
REMARK    1  A    between atoms: C02_2  and  N03_3 
REMARK    2  A    between atoms: N03_3  and  C04_4 
REMARK    3  A    between atoms: N03_3  and  C06_6 
REMARK    4  A    between atoms: C06_6  and  C07_7 
REMARK    5  A    between atoms: C07_7  and  O08_8 
REMARK    6  A    between atoms: O08_8  and  C09_9 
REMARK    7  A    between atoms: C12_12  and  N13_13 
REMARK    8  A    between atoms: N13_13  and  C14_14 
REMARK    9  A    between atoms: C21_21  and  C26_26 
ROOT
HETATM    1  C14   D T 601       7.620  -7.783  -7.509  1.00 17.92     0.728 A 
HETATM    2  N15   D T 601       6.848  -7.002  -8.291  1.00 19.07    -0.044 NA
HETATM    3  C16   D T 601       7.043  -5.690  -8.478  1.00 18.16     0.163 A 
HETATM    4  C17   D T 601       8.100  -5.085  -7.795  1.00 16.80     0.030 A 
HETATM    5  C18   D T 601       8.878  -5.878  -6.949  1.00 18.08     0.151 A 
HETATM    6  N19   D T 601       8.620  -7.197  -6.828  1.00 16.91    -0.074 NA
HETATM    7  C20   D T 601       8.329  -3.703  -7.948  1.00 17.65     0.034 A 
HETATM    8  C21   D T 601       7.511  -2.944  -8.799  1.00 18.53     0.047 A 
HETATM    9  C22   D T 601       6.451  -3.609  -9.463  1.00 19.48     0.260 A 
HETATM   10  O23   D T 601       5.737  -2.876 -10.178  1.00 21.52    -0.267 OA
HETATM   11  N24   D T 601       6.229  -4.965  -9.312  1.00 19.49    -0.301 N 
HETATM   12  C25   D T 601       5.166  -5.677 -10.005  1.00 20.07     0.161 C 
ENDROOT
BRANCH   1  13
HETATM   13  N13   D T 601       7.354  -9.094  -7.399  1.00 20.14    -0.188 N 
HETATM   14 1H13   D T 601       7.795  -9.517  -6.714  1.00 24.16     0.184 HD
BRANCH  13  15
HETATM   15  C12   D T 601       6.529  -9.908  -8.144  1.00 24.69     0.049 A 
HETATM   16  C11   D T 601       6.849 -11.291  -8.165  1.00 26.89     0.033 A 
HETATM   17  C10   D T 601       6.047 -12.201  -8.888  1.00 28.95     0.039 A 
HETATM   18  C09   D T 601       4.907 -11.737  -9.579  1.00 30.95     0.069 A 
HETATM   19  C35   D T 601       4.574 -10.372  -9.535  1.00 28.80     0.039 A 
HETATM   20  C34   D T 601       5.385  -9.475  -8.832  1.00 26.81     0.033 A 
BRANCH  18  21
HETATM   21  O08   D T 601       4.096 -12.591 -10.241  1.00 36.09    -0.350 OA
BRANCH  21  22
HETATM   22  C07   D T 601       3.520 -12.070 -11.470  1.00 42.63     0.195 C 
BRANCH  22  23
HETATM   23  C06   D T 601       3.401 -13.231 -12.507  1.00 46.85     0.143 C 
BRANCH  23  24
HETATM   24  N03   D T 601       3.175 -14.590 -11.883  1.00 51.06    -0.411 N 
BRANCH  24  25
HETATM   25  C02   D T 601       4.297 -15.618 -11.762  1.00 53.85     0.112 C 
HETATM   26  C01   D T 601       5.372 -15.434 -10.641  1.00 52.69     0.026 C 
ENDBRANCH  24  25
BRANCH  24  27
HETATM   27  C04   D T 601       1.821 -14.830 -11.270  1.00 47.80     0.112 C 
HETATM   28  C05   D T 601       1.394 -13.962 -10.054  1.00 44.89     0.026 C 
ENDBRANCH  24  27
ENDBRANCH  23  24
ENDBRANCH  22  23
ENDBRANCH  21  22
ENDBRANCH  18  21
ENDBRANCH  13  15
ENDBRANCH   1  13
BRANCH   8  29
HETATM   29  C26   D T 601       7.736  -1.542  -8.986  1.00 21.63     0.023 A 
HETATM   30  C27   D T 601       8.787  -1.090  -9.832  1.00 22.75     0.046 A 
HETATM   31 CL28   D T 601       9.812  -2.202 -10.584  1.00 22.59    -0.083 Cl
HETATM   32  C29   D T 601       9.037   0.291 -10.042  1.00 24.08     0.025 A 
HETATM   33  C30   D T 601       8.196   1.252  -9.436  1.00 25.63     0.003 A 
HETATM   34  C31   D T 601       7.141   0.825  -8.618  1.00 25.41     0.025 A 
HETATM   35  C32   D T 601       6.913  -0.556  -8.394  1.00 23.77     0.046 A 
HETATM   36 CL33   D T 601       5.627  -1.006  -7.390  1.00 25.94    -0.083 Cl
ENDBRANCH   8  29
TORSDOF 9
