REMARK  9 active torsions:
REMARK  status: ('A' for Active; 'I' for Inactive)
REMARK    1  A    between atoms: C02_2  and  N03_3 
REMARK    2  A    between atoms: N03_3  and  C04_4 
REMARK    3  A    between atoms: N03_3  and  C06_6 
REMARK    4  A    between atoms: C06_6  and  C07_7 
REMARK    5  A    between atoms: C07_7  and  O08_8 
REMARK    6  A    between atoms: O08_8  and  C09_9 
REMARK    7  A    between atoms: C12_12  and  N13_13 
REMARK    8  A    between atoms: N13_13  and  C14_14 
REMARK    9  A    between atoms: C21_21  and  C26_26 
ROOT
HETATM    1  C14   D T 601       7.669 -10.394  -7.478  1.00 17.92     0.728 A 
HETATM    2  N15   D T 601       7.365 -10.668  -6.193  1.00 19.07    -0.044 NA
HETATM    3  C16   D T 601       6.128 -10.617  -5.682  1.00 18.16     0.163 A 
HETATM    4  C17   D T 601       5.088 -10.227  -6.529  1.00 16.80     0.030 A 
HETATM    5  C18   D T 601       5.402  -9.900  -7.849  1.00 18.08     0.151 A 
HETATM    6  N19   D T 601       6.675  -9.991  -8.287  1.00 16.91    -0.074 NA
HETATM    7  C20   D T 601       3.774 -10.141  -6.026  1.00 17.65     0.034 A 
HETATM    8  C21   D T 601       3.510 -10.467  -4.686  1.00 18.53     0.047 A 
HETATM    9  C22   D T 601       4.604 -10.851  -3.873  1.00 19.48     0.260 A 
HETATM   10  O23   D T 601       4.313 -11.094  -2.683  1.00 21.52    -0.267 OA
HETATM   11  N24   D T 601       5.892 -10.936  -4.368  1.00 19.49    -0.301 N 
HETATM   12  C25   D T 601       7.026 -11.356  -3.560  1.00 20.07     0.161 C 
ENDROOT
BRANCH   1  13
HETATM   13  N13   D T 601       8.939 -10.491  -7.902  1.00 20.14    -0.188 N 
HETATM   14 1H13   D T 601       9.098 -10.113  -8.723  1.00 24.16     0.184 HD
BRANCH  13  15
HETATM   15  C12   D T 601      10.042 -11.064  -7.308  1.00 24.69     0.049 A 
HETATM   16  C11   D T 601      11.079 -11.500  -8.175  1.00 26.89     0.033 A 
HETATM   17  C10   D T 601      12.254 -12.081  -7.651  1.00 28.95     0.039 A 
HETATM   18  C09   D T 601      12.410 -12.214  -6.254  1.00 30.95     0.069 A 
HETATM   19  C35   D T 601      11.395 -11.757  -5.394  1.00 28.80     0.039 A 
HETATM   20  C34   D T 601      10.227 -11.199  -5.923  1.00 26.81     0.033 A 
BRANCH  18  21
HETATM   21  O08   D T 601      13.542 -12.725  -5.723  1.00 36.09    -0.350 OA
BRANCH  21  22
HETATM   22  C07   D T 601      13.356 -13.531  -4.527  1.00 42.63     0.195 C 
BRANCH  22  23
HETATM   23  C06   D T 601      14.401 -14.692  -4.530  1.00 46.85     0.143 C 
BRANCH  23  24
HETATM   24  N03   D T 601      15.702 -14.344  -5.218  1.00 51.06    -0.411 N 
BRANCH  24  25
HETATM   25  C02   D T 601      16.033 -14.848  -6.619  1.00 53.85     0.112 C 
HETATM   26  C01   D T 601      15.357 -14.158  -7.850  1.00 52.69     0.026 C 
ENDBRANCH  24  25
BRANCH  24  27
HETATM   27  C04   D T 601      16.599 -13.369  -4.503  1.00 47.80     0.112 C 
HETATM   28  C05   D T 601      16.084 -11.921  -4.272  1.00 44.89     0.026 C 
ENDBRANCH  24  27
ENDBRANCH  23  24
ENDBRANCH  22  23
ENDBRANCH  21  22
ENDBRANCH  18  21
ENDBRANCH  13  15
ENDBRANCH   1  13
BRANCH   8  29
HETATM   29  C26   D T 601       2.180 -10.406  -4.158  1.00 21.63     0.023 A 
HETATM   30  C27   D T 601       1.248 -11.442  -4.442  1.00 22.75     0.046 A 
HETATM   31 CL28   D T 601       1.682 -12.727  -5.446  1.00 22.59    -0.083 Cl
HETATM   32  C29   D T 601      -0.077 -11.415  -3.933  1.00 24.08     0.025 A 
HETATM   33  C30   D T 601      -0.476 -10.360  -3.082  1.00 25.63     0.003 A 
HETATM   34  C31   D T 601       0.437  -9.342  -2.772  1.00 25.41     0.025 A 
HETATM   35  C32   D T 601       1.751  -9.363  -3.305  1.00 23.77     0.046 A 
HETATM   36 CL33   D T 601       2.803  -8.102  -2.898  1.00 25.94    -0.083 Cl
ENDBRANCH   8  29
TORSDOF 9
