REMARK  9 active torsions:
REMARK  status: ('A' for Active; 'I' for Inactive)
REMARK    1  A    between atoms: C02_2  and  N03_3 
REMARK    2  A    between atoms: N03_3  and  C04_4 
REMARK    3  A    between atoms: N03_3  and  C06_6 
REMARK    4  A    between atoms: C06_6  and  C07_7 
REMARK    5  A    between atoms: C07_7  and  O08_8 
REMARK    6  A    between atoms: O08_8  and  C09_9 
REMARK    7  A    between atoms: C12_12  and  N13_13 
REMARK    8  A    between atoms: N13_13  and  C14_14 
REMARK    9  A    between atoms: C21_21  and  C26_26 
ROOT
HETATM    1  C14   D T 601       7.694   6.385   7.275  1.00 17.92     0.728 A 
HETATM    2  N15   D T 601       7.484   7.609   6.748  1.00 19.07    -0.044 NA
HETATM    3  C16   D T 601       6.320   8.017   6.225  1.00 18.16     0.163 A 
HETATM    4  C17   D T 601       5.261   7.107   6.200  1.00 16.80     0.030 A 
HETATM    5  C18   D T 601       5.484   5.824   6.705  1.00 18.08     0.151 A 
HETATM    6  N19   D T 601       6.686   5.498   7.226  1.00 16.91    -0.074 NA
HETATM    7  C20   D T 601       4.025   7.490   5.642  1.00 17.65     0.034 A 
HETATM    8  C21   D T 601       3.854   8.787   5.134  1.00 18.53     0.047 A 
HETATM    9  C22   D T 601       4.964   9.666   5.182  1.00 19.48     0.260 A 
HETATM   10  O23   D T 601       4.761  10.793   4.683  1.00 21.52    -0.267 OA
HETATM   11  N24   D T 601       6.175   9.289   5.730  1.00 19.49    -0.301 N 
HETATM   12  C25   D T 601       7.319  10.183   5.816  1.00 20.07     0.161 C 
ENDROOT
BRANCH   1  13
HETATM   13  N13   D T 601       8.893   6.074   7.791  1.00 20.14    -0.188 N 
HETATM   14 1H13   D T 601       9.019   5.180   7.955  1.00 24.16     0.184 HD
BRANCH  13  15
HETATM   15  C12   D T 601       9.966   6.876   8.115  1.00 24.69     0.049 A 
HETATM   16  C11   D T 601      10.848   6.387   9.114  1.00 26.89     0.033 A 
HETATM   17  C10   D T 601      11.984   7.133   9.496  1.00 28.95     0.039 A 
HETATM   18  C09   D T 601      12.257   8.367   8.866  1.00 30.95     0.069 A 
HETATM   19  C35   D T 601      11.400   8.838   7.855  1.00 28.80     0.039 A 
HETATM   20  C34   D T 601      10.266   8.100   7.498  1.00 26.81     0.033 A 
BRANCH  18  21
HETATM   21  O08   D T 601      13.361   9.081   9.178  1.00 36.09    -0.350 OA
BRANCH  21  22
HETATM   22  C07   D T 601      13.191  10.525   9.155  1.00 42.63     0.195 C 
BRANCH  22  23
HETATM   23  C06   D T 601      14.072  11.158  10.278  1.00 46.85     0.143 C 
BRANCH  23  24
HETATM   24  N03   D T 601      15.333  10.380  10.579  1.00 51.06    -0.411 N 
BRANCH  24  25
HETATM   25  C02   D T 601      15.457   9.492  11.814  1.00 53.85     0.112 C 
HETATM   26  C01   D T 601      14.759   8.092  11.811  1.00 52.69     0.026 C 
ENDBRANCH  24  25
BRANCH  24  27
HETATM   27  C04   D T 601      16.414  10.423   9.532  1.00 47.80     0.112 C 
HETATM   28  C05   D T 601      16.116   9.815   8.134  1.00 44.89     0.026 C 
ENDBRANCH  24  27
ENDBRANCH  23  24
ENDBRANCH  22  23
ENDBRANCH  21  22
ENDBRANCH  18  21
ENDBRANCH  13  15
ENDBRANCH   1  13
BRANCH   8  29
HETATM   29  C26   D T 601       2.601   9.205   4.580  1.00 21.63     0.023 A 
HETATM   30  C27   D T 601       1.520   9.555   5.436  1.00 22.75     0.046 A 
HETATM   31 CL28   D T 601       1.684   9.430   7.111  1.00 22.59    -0.083 Cl
HETATM   32  C29   D T 601       0.266   9.977   4.921  1.00 24.08     0.025 A 
HETATM   33  C30   D T 601       0.091  10.101   3.524  1.00 25.63     0.003 A 
HETATM   34  C31   D T 601       1.154   9.784   2.667  1.00 25.41     0.025 A 
HETATM   35  C32   D T 601       2.396   9.340   3.188  1.00 23.77     0.046 A 
HETATM   36 CL33   D T 601       3.636   8.966   2.099  1.00 25.94    -0.083 Cl
ENDBRANCH   8  29
TORSDOF 9
