REMARK  9 active torsions:
REMARK  status: ('A' for Active; 'I' for Inactive)
REMARK    1  A    between atoms: C02_2  and  N03_3 
REMARK    2  A    between atoms: N03_3  and  C04_4 
REMARK    3  A    between atoms: N03_3  and  C06_6 
REMARK    4  A    between atoms: C06_6  and  C07_7 
REMARK    5  A    between atoms: C07_7  and  O08_8 
REMARK    6  A    between atoms: O08_8  and  C09_9 
REMARK    7  A    between atoms: C12_12  and  N13_13 
REMARK    8  A    between atoms: N13_13  and  C14_14 
REMARK    9  A    between atoms: C21_21  and  C26_26 
ROOT
HETATM    1  C14   D T 601      -6.957   7.612   1.608  1.00 17.92     0.728 A 
HETATM    2  N15   D T 601      -7.581   6.860   0.679  1.00 19.07    -0.044 NA
HETATM    3  C16   D T 601      -7.766   5.537   0.777  1.00 18.16     0.163 A 
HETATM    4  C17   D T 601      -7.255   4.889   1.904  1.00 16.80     0.030 A 
HETATM    5  C18   D T 601      -6.570   5.655   2.850  1.00 18.08     0.151 A 
HETATM    6  N19   D T 601      -6.439   6.986   2.679  1.00 16.91    -0.074 NA
HETATM    7  C20   D T 601      -7.411   3.495   2.038  1.00 17.65     0.034 A 
HETATM    8  C21   D T 601      -8.096   2.766   1.053  1.00 18.53     0.047 A 
HETATM    9  C22   D T 601      -8.589   3.474  -0.070  1.00 19.48     0.260 A 
HETATM   10  O23   D T 601      -9.157   2.767  -0.929  1.00 21.52    -0.267 OA
HETATM   11  N24   D T 601      -8.436   4.842  -0.199  1.00 19.49    -0.301 N 
HETATM   12  C25   D T 601      -8.957   5.596  -1.328  1.00 20.07     0.161 C 
ENDROOT
BRANCH   1  13
HETATM   13  N13   D T 601      -6.835   8.937   1.428  1.00 20.14    -0.188 N 
HETATM   14 1H13   D T 601      -6.244   9.347   1.996  1.00 24.16     0.184 HD
BRANCH  13  15
HETATM   15  C12   D T 601      -7.450   9.780   0.529  1.00 24.69     0.049 A 
HETATM   16  C11   D T 601      -7.558  11.144   0.907  1.00 26.89     0.033 A 
HETATM   17  C10   D T 601      -8.157  12.083   0.039  1.00 28.95     0.039 A 
HETATM   18  C09   D T 601      -8.637  11.667  -1.222  1.00 30.95     0.069 A 
HETATM   19  C35   D T 601      -8.506  10.322  -1.608  1.00 28.80     0.039 A 
HETATM   20  C34   D T 601      -7.927   9.395  -0.734  1.00 26.81     0.033 A 
BRANCH  18  21
HETATM   21  O08   D T 601      -9.175  12.552  -2.091  1.00 36.09    -0.350 OA
BRANCH  21  22
HETATM   22  C07   D T 601     -10.278  12.042  -2.890  1.00 42.63     0.195 C 
BRANCH  22  23
HETATM   23  C06   D T 601     -11.307  13.192  -3.126  1.00 46.85     0.143 C 
BRANCH  23  24
HETATM   24  N03   D T 601     -10.687  14.570  -3.178  1.00 51.06    -0.411 N 
BRANCH  24  25
HETATM   25  C02   D T 601     -10.778  15.541  -2.005  1.00 53.85     0.112 C 
HETATM   26  C01   D T 601      -9.848  15.319  -0.766  1.00 52.69     0.026 C 
ENDBRANCH  24  25
BRANCH  24  27
HETATM   27  C04   D T 601      -9.861  14.888  -4.397  1.00 47.80     0.112 C 
HETATM   28  C05   D T 601      -8.571  14.061  -4.655  1.00 44.89     0.026 C 
ENDBRANCH  24  27
ENDBRANCH  23  24
ENDBRANCH  22  23
ENDBRANCH  21  22
ENDBRANCH  18  21
ENDBRANCH  13  15
ENDBRANCH   1  13
BRANCH   8  29
HETATM   29  C26   D T 601      -8.285   1.351   1.177  1.00 21.63     0.023 A 
HETATM   30  C27   D T 601      -9.284   0.834   2.047  1.00 22.75     0.046 A 
HETATM   31 CL28   D T 601     -10.222   1.880   2.983  1.00 22.59    -0.083 Cl
HETATM   32  C29   D T 601      -9.500  -0.561   2.192  1.00 24.08     0.025 A 
HETATM   33  C30   D T 601      -8.740  -1.468   1.420  1.00 25.63     0.003 A 
HETATM   34  C31   D T 601      -7.767  -0.976   0.539  1.00 25.41     0.025 A 
HETATM   35  C32   D T 601      -7.541   0.418   0.418  1.00 23.77     0.046 A 
HETATM   36 CL33   D T 601      -6.347   0.948  -0.658  1.00 25.94    -0.083 Cl
ENDBRANCH   8  29
TORSDOF 9
