REMARK  9 active torsions:
REMARK  status: ('A' for Active; 'I' for Inactive)
REMARK    1  A    between atoms: C02_2  and  N03_3 
REMARK    2  A    between atoms: N03_3  and  C04_4 
REMARK    3  A    between atoms: N03_3  and  C06_6 
REMARK    4  A    between atoms: C06_6  and  C07_7 
REMARK    5  A    between atoms: C07_7  and  O08_8 
REMARK    6  A    between atoms: O08_8  and  C09_9 
REMARK    7  A    between atoms: C12_12  and  N13_13 
REMARK    8  A    between atoms: N13_13  and  C14_14 
REMARK    9  A    between atoms: C21_21  and  C26_26 
ROOT
HETATM    1  C14   D T 601     -26.971  -2.661  10.778  1.00 17.92     0.728 A 
HETATM    2  N15   D T 601     -28.192  -2.823  10.231  1.00 19.07    -0.044 NA
HETATM    3  C16   D T 601     -29.317  -3.012  10.933  1.00 18.16     0.163 A 
HETATM    4  C17   D T 601     -29.214  -3.073  12.325  1.00 16.80     0.030 A 
HETATM    5  C18   D T 601     -27.946  -2.950  12.897  1.00 18.08     0.151 A 
HETATM    6  N19   D T 601     -26.865  -2.749  12.115  1.00 16.91    -0.074 NA
HETATM    7  C20   D T 601     -30.369  -3.290  13.101  1.00 17.65     0.034 A 
HETATM    8  C21   D T 601     -31.621  -3.422  12.479  1.00 18.53     0.047 A 
HETATM    9  C22   D T 601     -31.665  -3.356  11.065  1.00 19.48     0.260 A 
HETATM   10  O23   D T 601     -32.800  -3.516  10.568  1.00 21.52    -0.267 OA
HETATM   11  N24   D T 601     -30.531  -3.142  10.305  1.00 19.49    -0.301 N 
HETATM   12  C25   D T 601     -30.555  -3.042   8.854  1.00 20.07     0.161 C 
ENDROOT
BRANCH   1  13
HETATM   13  N13   D T 601     -25.904  -2.459   9.989  1.00 20.14    -0.188 N 
HETATM   14 1H13   D T 601     -25.094  -2.547  10.412  1.00 24.16     0.184 HD
BRANCH  13  15
HETATM   15  C12   D T 601     -25.824  -2.143   8.651  1.00 24.69     0.049 A 
HETATM   16  C11   D T 601     -24.650  -1.469   8.224  1.00 26.89     0.033 A 
HETATM   17  C10   D T 601     -24.475  -1.122   6.867  1.00 28.95     0.039 A 
HETATM   18  C09   D T 601     -25.466  -1.465   5.922  1.00 30.95     0.069 A 
HETATM   19  C35   D T 601     -26.617  -2.157   6.339  1.00 28.80     0.039 A 
HETATM   20  C34   D T 601     -26.789  -2.480   7.689  1.00 26.81     0.033 A 
BRANCH  18  21
HETATM   21  O08   D T 601     -25.306  -1.186   4.609  1.00 36.09    -0.350 OA
BRANCH  21  22
HETATM   22  C07   D T 601     -26.522  -0.819   3.901  1.00 42.63     0.195 C 
BRANCH  22  23
HETATM   23  C06   D T 601     -26.175   0.251   2.818  1.00 46.85     0.143 C 
BRANCH  23  24
HETATM   24  N03   D T 601     -24.779   0.121   2.252  1.00 51.06    -0.411 N 
BRANCH  24  25
HETATM   25  C02   D T 601     -23.648   1.054   2.674  1.00 53.85     0.112 C 
HETATM   26  C01   D T 601     -22.959   0.828   4.060  1.00 52.69     0.026 C 
ENDBRANCH  24  25
BRANCH  24  27
HETATM   27  C04   D T 601     -24.528  -1.057   1.349  1.00 47.80     0.112 C 
HETATM   28  C05   D T 601     -24.652  -2.487   1.945  1.00 44.89     0.026 C 
ENDBRANCH  24  27
ENDBRANCH  23  24
ENDBRANCH  22  23
ENDBRANCH  21  22
ENDBRANCH  18  21
ENDBRANCH  13  15
ENDBRANCH   1  13
BRANCH   8  29
HETATM   29  C26   D T 601     -32.812  -3.624  13.248  1.00 21.63     0.023 A 
HETATM   30  C27   D T 601     -33.425  -2.530  13.921  1.00 22.75     0.046 A 
HETATM   31 CL28   D T 601     -32.725  -0.995  13.864  1.00 22.59    -0.083 Cl
HETATM   32  C29   D T 601     -34.607  -2.693  14.690  1.00 24.08     0.025 A 
HETATM   33  C30   D T 601     -35.226  -3.962  14.756  1.00 25.63     0.003 A 
HETATM   34  C31   D T 601     -34.650  -5.046  14.079  1.00 25.41     0.025 A 
HETATM   35  C32   D T 601     -33.455  -4.880  13.334  1.00 23.77     0.046 A 
HETATM   36 CL33   D T 601     -32.806  -6.230  12.546  1.00 25.94    -0.083 Cl
ENDBRANCH   8  29
TORSDOF 9
