REMARK  9 active torsions:
REMARK  status: ('A' for Active; 'I' for Inactive)
REMARK    1  A    between atoms: C02_2  and  N03_3 
REMARK    2  A    between atoms: N03_3  and  C04_4 
REMARK    3  A    between atoms: N03_3  and  C06_6 
REMARK    4  A    between atoms: C06_6  and  C07_7 
REMARK    5  A    between atoms: C07_7  and  O08_8 
REMARK    6  A    between atoms: O08_8  and  C09_9 
REMARK    7  A    between atoms: C12_12  and  N13_13 
REMARK    8  A    between atoms: N13_13  and  C14_14 
REMARK    9  A    between atoms: C21_21  and  C26_26 
ROOT
HETATM    1  C14   D T 601      -2.111  -3.670   8.433  1.00 17.92     0.728 A 
HETATM    2  N15   D T 601      -1.989  -2.359   8.721  1.00 19.07    -0.044 NA
HETATM    3  C16   D T 601      -2.855  -1.414   8.328  1.00 18.16     0.163 A 
HETATM    4  C17   D T 601      -3.941  -1.811   7.545  1.00 16.80     0.030 A 
HETATM    5  C18   D T 601      -4.050  -3.162   7.207  1.00 18.08     0.151 A 
HETATM    6  N19   D T 601      -3.139  -4.050   7.656  1.00 16.91    -0.074 NA
HETATM    7  C20   D T 601      -4.865  -0.848   7.095  1.00 17.65     0.034 A 
HETATM    8  C21   D T 601      -4.705   0.501   7.450  1.00 18.53     0.047 A 
HETATM    9  C22   D T 601      -3.583   0.846   8.242  1.00 19.48     0.260 A 
HETATM   10  O23   D T 601      -3.474   2.065   8.495  1.00 21.52    -0.267 OA
HETATM   11  N24   D T 601      -2.678  -0.100   8.683  1.00 19.49    -0.301 N 
HETATM   12  C25   D T 601      -1.534   0.225   9.521  1.00 20.07     0.161 C 
ENDROOT
BRANCH   1  13
HETATM   13  N13   D T 601      -1.199  -4.544   8.887  1.00 20.14    -0.188 N 
HETATM   14 1H13   D T 601      -1.240  -5.375   8.500  1.00 24.16     0.184 HD
BRANCH  13  15
HETATM   15  C12   D T 601      -0.213  -4.399   9.838  1.00 24.69     0.049 A 
HETATM   16  C11   D T 601       0.219  -5.582  10.493  1.00 26.89     0.033 A 
HETATM   17  C10   D T 601       1.240  -5.529  11.468  1.00 28.95     0.039 A 
HETATM   18  C09   D T 601       1.849  -4.295  11.781  1.00 30.95     0.069 A 
HETATM   19  C35   D T 601       1.440  -3.127  11.112  1.00 28.80     0.039 A 
HETATM   20  C34   D T 601       0.416  -3.186  10.161  1.00 26.81     0.033 A 
BRANCH  18  21
HETATM   21  O08   D T 601       2.858  -4.221  12.677  1.00 36.09    -0.350 OA
BRANCH  21  22
HETATM   22  C07   D T 601       2.873  -3.019  13.495  1.00 42.63     0.195 C 
BRANCH  22  23
HETATM   23  C06   D T 601       3.392  -3.383  14.922  1.00 46.85     0.143 C 
BRANCH  23  24
HETATM   24  N03   D T 601       4.380  -4.527  14.941  1.00 51.06    -0.411 N 
BRANCH  24  25
HETATM   25  C02   D T 601       3.979  -5.932  15.384  1.00 53.85     0.112 C 
HETATM   26  C01   D T 601       3.166  -6.832  14.396  1.00 52.69     0.026 C 
ENDBRANCH  24  25
BRANCH  24  27
HETATM   27  C04   D T 601       5.747  -4.243  14.379  1.00 47.80     0.112 C 
HETATM   28  C05   D T 601       5.868  -3.880  12.873  1.00 44.89     0.026 C 
ENDBRANCH  24  27
ENDBRANCH  23  24
ENDBRANCH  22  23
ENDBRANCH  21  22
ENDBRANCH  18  21
ENDBRANCH  13  15
ENDBRANCH   1  13
BRANCH   8  29
HETATM   29  C26   D T 601      -5.642   1.495   7.020  1.00 21.63     0.023 A 
HETATM   30  C27   D T 601      -6.900   1.625   7.671  1.00 22.75     0.046 A 
HETATM   31 CL28   D T 601      -7.323   0.573   8.923  1.00 22.59    -0.083 Cl
HETATM   32  C29   D T 601      -7.851   2.601   7.274  1.00 24.08     0.025 A 
HETATM   33  C30   D T 601      -7.531   3.504   6.236  1.00 25.63     0.003 A 
HETATM   34  C31   D T 601      -6.286   3.408   5.599  1.00 25.41     0.025 A 
HETATM   35  C32   D T 601      -5.351   2.414   5.985  1.00 23.77     0.046 A 
HETATM   36 CL33   D T 601      -3.869   2.345   5.171  1.00 25.94    -0.083 Cl
ENDBRANCH   8  29
TORSDOF 9
