REMARK  9 active torsions:
REMARK  status: ('A' for Active; 'I' for Inactive)
REMARK    1  A    between atoms: C02_2  and  N03_3 
REMARK    2  A    between atoms: N03_3  and  C04_4 
REMARK    3  A    between atoms: N03_3  and  C06_6 
REMARK    4  A    between atoms: C06_6  and  C07_7 
REMARK    5  A    between atoms: C07_7  and  O08_8 
REMARK    6  A    between atoms: O08_8  and  C09_9 
REMARK    7  A    between atoms: C12_12  and  N13_13 
REMARK    8  A    between atoms: N13_13  and  C14_14 
REMARK    9  A    between atoms: C21_21  and  C26_26 
ROOT
HETATM    1  C14   D T 601      -1.426  14.435  -6.253  1.00 17.92     0.728 A 
HETATM    2  N15   D T 601      -0.330  13.855  -5.724  1.00 19.07    -0.044 NA
HETATM    3  C16   D T 601       0.331  12.834  -6.286  1.00 18.16     0.163 A 
HETATM    4  C17   D T 601      -0.163  12.318  -7.486  1.00 16.80     0.030 A 
HETATM    5  C18   D T 601      -1.323  12.887  -8.018  1.00 18.08     0.151 A 
HETATM    6  N19   D T 601      -1.920  13.922  -7.393  1.00 16.91    -0.074 NA
HETATM    7  C20   D T 601       0.491  11.232  -8.101  1.00 17.65     0.034 A 
HETATM    8  C21   D T 601       1.646  10.686  -7.519  1.00 18.53     0.047 A 
HETATM    9  C22   D T 601       2.099  11.246  -6.300  1.00 19.48     0.260 A 
HETATM   10  O23   D T 601       3.109  10.695  -5.814  1.00 21.52    -0.267 OA
HETATM   11  N24   D T 601       1.457  12.312  -5.699  1.00 19.49    -0.301 N 
HETATM   12  C25   D T 601       1.919  12.922  -4.462  1.00 20.07     0.161 C 
ENDROOT
BRANCH   1  13
HETATM   13  N13   D T 601      -2.010  15.467  -5.623  1.00 20.14    -0.188 N 
HETATM   14 1H13   D T 601      -2.844  15.683  -5.936  1.00 24.16     0.184 HD
BRANCH  13  15
HETATM   15  C12   D T 601      -1.562  16.253  -4.584  1.00 24.69     0.049 A 
HETATM   16  C11   D T 601      -2.110  17.559  -4.491  1.00 26.89     0.033 A 
HETATM   17  C10   D T 601      -1.723  18.426  -3.446  1.00 28.95     0.039 A 
HETATM   18  C09   D T 601      -0.798  17.986  -2.475  1.00 30.95     0.069 A 
HETATM   19  C35   D T 601      -0.276  16.683  -2.551  1.00 28.80     0.039 A 
HETATM   20  C34   D T 601      -0.651  15.837  -3.600  1.00 26.81     0.033 A 
BRANCH  18  21
HETATM   21  O08   D T 601      -0.443  18.778  -1.439  1.00 36.09    -0.350 OA
BRANCH  21  22
HETATM   22  C07   D T 601       0.942  18.657  -1.013  1.00 42.63     0.195 C 
BRANCH  22  23
HETATM   23  C06   D T 601       1.453  20.055  -0.544  1.00 46.85     0.143 C 
BRANCH  23  24
HETATM   24  N03   D T 601       0.376  20.934   0.052  1.00 51.06    -0.411 N 
BRANCH  24  25
HETATM   25  C02   D T 601      -0.244  22.090  -0.728  1.00 53.85     0.112 C 
HETATM   26  C01   D T 601      -1.305  21.773  -1.832  1.00 52.69     0.026 C 
ENDBRANCH  24  25
BRANCH  24  27
HETATM   27  C04   D T 601      -0.147  20.530   1.405  1.00 47.80     0.112 C 
HETATM   28  C05   D T 601      -0.882  19.168   1.539  1.00 44.89     0.026 C 
ENDBRANCH  24  27
ENDBRANCH  23  24
ENDBRANCH  22  23
ENDBRANCH  21  22
ENDBRANCH  18  21
ENDBRANCH  13  15
ENDBRANCH   1  13
BRANCH   8  29
HETATM   29  C26   D T 601       2.339   9.595  -8.136  1.00 21.63     0.023 A 
HETATM   30  C27   D T 601       3.187   9.824  -9.255  1.00 22.75     0.046 A 
HETATM   31 CL28   D T 601       3.344  11.376  -9.901  1.00 22.59    -0.083 Cl
HETATM   32  C29   D T 601       3.891   8.766  -9.888  1.00 24.08     0.025 A 
HETATM   33  C30   D T 601       3.791   7.455  -9.372  1.00 25.63     0.003 A 
HETATM   34  C31   D T 601       2.979   7.214  -8.255  1.00 25.41     0.025 A 
HETATM   35  C32   D T 601       2.260   8.271  -7.643  1.00 23.77     0.046 A 
HETATM   36 CL33   D T 601       1.291   7.914  -6.303  1.00 25.94    -0.083 Cl
ENDBRANCH   8  29
TORSDOF 9
