REMARK  9 active torsions:
REMARK  status: ('A' for Active; 'I' for Inactive)
REMARK    1  A    between atoms: C02_2  and  N03_3 
REMARK    2  A    between atoms: N03_3  and  C04_4 
REMARK    3  A    between atoms: N03_3  and  C06_6 
REMARK    4  A    between atoms: C06_6  and  C07_7 
REMARK    5  A    between atoms: C07_7  and  O08_8 
REMARK    6  A    between atoms: O08_8  and  C09_9 
REMARK    7  A    between atoms: C12_12  and  N13_13 
REMARK    8  A    between atoms: N13_13  and  C14_14 
REMARK    9  A    between atoms: C21_21  and  C26_26 
ROOT
HETATM    1  C14   D T 601      -6.548  -3.751   7.930  1.00 17.92     0.728 A 
HETATM    2  N15   D T 601      -5.499  -3.470   8.729  1.00 19.07    -0.044 NA
HETATM    3  C16   D T 601      -5.263  -2.269   9.274  1.00 18.16     0.163 A 
HETATM    4  C17   D T 601      -6.148  -1.231   8.971  1.00 16.80     0.030 A 
HETATM    5  C18   D T 601      -7.212  -1.504   8.109  1.00 18.08     0.151 A 
HETATM    6  N19   D T 601      -7.384  -2.747   7.614  1.00 16.91    -0.074 NA
HETATM    7  C20   D T 601      -5.926   0.053   9.507  1.00 17.65     0.034 A 
HETATM    8  C21   D T 601      -4.833   0.282  10.358  1.00 18.53     0.047 A 
HETATM    9  C22   D T 601      -3.967  -0.806  10.627  1.00 19.48     0.260 A 
HETATM   10  O23   D T 601      -2.994  -0.533  11.361  1.00 21.52    -0.267 OA
HETATM   11  N24   D T 601      -4.187  -2.066  10.101  1.00 19.49    -0.301 N 
HETATM   12  C25   D T 601      -3.328  -3.205  10.384  1.00 20.07     0.161 C 
ENDROOT
BRANCH   1  13
HETATM   13  N13   D T 601      -6.709  -4.992   7.445  1.00 20.14    -0.188 N 
HETATM   14 1H13   D T 601      -7.325  -5.062   6.769  1.00 24.16     0.184 HD
BRANCH  13  15
HETATM   15  C12   D T 601      -6.102  -6.178   7.797  1.00 24.69     0.049 A 
HETATM   16  C11   D T 601      -6.826  -7.369   7.527  1.00 26.89     0.033 A 
HETATM   17  C10   D T 601      -6.272  -8.630   7.836  1.00 28.95     0.039 A 
HETATM   18  C09   D T 601      -4.981  -8.711   8.402  1.00 30.95     0.069 A 
HETATM   19  C35   D T 601      -4.252  -7.533   8.643  1.00 28.80     0.039 A 
HETATM   20  C34   D T 601      -4.817  -6.287   8.350  1.00 26.81     0.033 A 
BRANCH  18  21
HETATM   21  O08   D T 601      -4.408  -9.905   8.667  1.00 36.09    -0.350 OA
BRANCH  21  22
HETATM   22  C07   D T 601      -3.579  -9.943   9.861  1.00 42.63     0.195 C 
BRANCH  22  23
HETATM   23  C06   D T 601      -3.717 -11.346  10.531  1.00 46.85     0.143 C 
BRANCH  23  24
HETATM   24  N03   D T 601      -3.982 -12.469   9.553  1.00 51.06    -0.411 N 
BRANCH  24  25
HETATM   25  C02   D T 601      -5.370 -13.079   9.383  1.00 53.85     0.112 C 
HETATM   26  C01   D T 601      -6.445 -12.294   8.562  1.00 52.69     0.026 C 
ENDBRANCH  24  25
BRANCH  24  27
HETATM   27  C04   D T 601      -2.836 -12.868   8.662  1.00 47.80     0.112 C 
HETATM   28  C05   D T 601      -2.288 -11.825   7.648  1.00 44.89     0.026 C 
ENDBRANCH  24  27
ENDBRANCH  23  24
ENDBRANCH  22  23
ENDBRANCH  21  22
ENDBRANCH  18  21
ENDBRANCH  13  15
ENDBRANCH   1  13
BRANCH   8  29
HETATM   29  C26   D T 601      -4.599   1.573  10.931  1.00 21.63     0.023 A 
HETATM   30  C27   D T 601      -5.370   2.016  12.041  1.00 22.75     0.046 A 
HETATM   31 CL28   D T 601      -6.604   1.046  12.663  1.00 22.59    -0.083 Cl
HETATM   32  C29   D T 601      -5.162   3.289  12.635  1.00 24.08     0.025 A 
HETATM   33  C30   D T 601      -4.133   4.126  12.149  1.00 25.63     0.003 A 
HETATM   34  C31   D T 601      -3.348   3.696  11.070  1.00 25.41     0.025 A 
HETATM   35  C32   D T 601      -3.577   2.434  10.467  1.00 23.77     0.046 A 
HETATM   36 CL33   D T 601      -2.599   1.976   9.164  1.00 25.94    -0.083 Cl
ENDBRANCH   8  29
TORSDOF 9
