REMARK  9 active torsions:
REMARK  status: ('A' for Active; 'I' for Inactive)
REMARK    1  A    between atoms: C02_2  and  N03_3 
REMARK    2  A    between atoms: N03_3  and  C04_4 
REMARK    3  A    between atoms: N03_3  and  C06_6 
REMARK    4  A    between atoms: C06_6  and  C07_7 
REMARK    5  A    between atoms: C07_7  and  O08_8 
REMARK    6  A    between atoms: O08_8  and  C09_9 
REMARK    7  A    between atoms: C12_12  and  N13_13 
REMARK    8  A    between atoms: N13_13  and  C14_14 
REMARK    9  A    between atoms: C21_21  and  C26_26 
ROOT
HETATM    1  C14   D T 601     -14.313  -5.729   8.149  1.00 17.92     0.728 A 
HETATM    2  N15   D T 601     -13.165  -5.374   8.761  1.00 19.07    -0.044 NA
HETATM    3  C16   D T 601     -12.910  -4.148   9.238  1.00 18.16     0.163 A 
HETATM    4  C17   D T 601     -13.887  -3.165   9.066  1.00 16.80     0.030 A 
HETATM    5  C18   D T 601     -15.061  -3.514   8.395  1.00 18.08     0.151 A 
HETATM    6  N19   D T 601     -15.243  -4.777   7.957  1.00 16.91    -0.074 NA
HETATM    7  C20   D T 601     -13.651  -1.858   9.536  1.00 17.65     0.034 A 
HETATM    8  C21   D T 601     -12.449  -1.552  10.193  1.00 18.53     0.047 A 
HETATM    9  C22   D T 601     -11.492  -2.587  10.335  1.00 19.48     0.260 A 
HETATM   10  O23   D T 601     -10.430  -2.246  10.895  1.00 21.52    -0.267 OA
HETATM   11  N24   D T 601     -11.726  -3.869   9.874  1.00 19.49    -0.301 N 
HETATM   12  C25   D T 601     -10.772  -4.955  10.033  1.00 20.07     0.161 C 
ENDROOT
BRANCH   1  13
HETATM   13  N13   D T 601     -14.483  -6.989   7.720  1.00 20.14    -0.188 N 
HETATM   14 1H13   D T 601     -15.195  -7.108   7.154  1.00 24.16     0.184 HD
BRANCH  13  15
HETATM   15  C12   D T 601     -13.763  -8.133   7.988  1.00 24.69     0.049 A 
HETATM   16  C11   D T 601     -14.455  -9.365   7.861  1.00 26.89     0.033 A 
HETATM   17  C10   D T 601     -13.791 -10.589   8.098  1.00 28.95     0.039 A 
HETATM   18  C09   D T 601     -12.423 -10.588   8.446  1.00 30.95     0.069 A 
HETATM   19  C35   D T 601     -11.729  -9.369   8.544  1.00 28.80     0.039 A 
HETATM   20  C34   D T 601     -12.401  -8.161   8.325  1.00 26.81     0.033 A 
BRANCH  18  21
HETATM   21  O08   D T 601     -11.750 -11.745   8.635  1.00 36.09    -0.350 OA
BRANCH  21  22
HETATM   22  C07   D T 601     -10.737 -11.709   9.677  1.00 42.63     0.195 C 
BRANCH  22  23
HETATM   23  C06   D T 601     -10.688 -13.099  10.386  1.00 46.85     0.143 C 
BRANCH  23  24
HETATM   24  N03   D T 601     -11.047 -14.260   9.485  1.00 51.06    -0.411 N 
BRANCH  24  25
HETATM   25  C02   D T 601     -12.409 -14.944   9.555  1.00 53.85     0.112 C 
HETATM   26  C01   D T 601     -13.644 -14.236   8.906  1.00 52.69     0.026 C 
ENDBRANCH  24  25
BRANCH  24  27
HETATM   27  C04   D T 601     -10.041 -14.623   8.425  1.00 47.80     0.112 C 
HETATM   28  C05   D T 601      -9.723 -13.581   7.317  1.00 44.89     0.026 C 
ENDBRANCH  24  27
ENDBRANCH  23  24
ENDBRANCH  22  23
ENDBRANCH  21  22
ENDBRANCH  18  21
ENDBRANCH  13  15
ENDBRANCH   1  13
BRANCH   8  29
HETATM   29  C26   D T 601     -12.195  -0.235  10.696  1.00 21.63     0.023 A 
HETATM   30  C27   D T 601     -12.798   0.197  11.910  1.00 22.75     0.046 A 
HETATM   31 CL28   D T 601     -13.861  -0.817  12.742  1.00 22.59    -0.083 Cl
HETATM   32  C29   D T 601     -12.566   1.494  12.439  1.00 24.08     0.025 A 
HETATM   33  C30   D T 601     -11.677   2.369  11.776  1.00 25.63     0.003 A 
HETATM   34  C31   D T 601     -11.055   1.951  10.592  1.00 25.41     0.025 A 
HETATM   35  C32   D T 601     -11.311   0.664  10.056  1.00 23.77     0.046 A 
HETATM   36 CL33   D T 601     -10.534   0.222   8.619  1.00 25.94    -0.083 Cl
ENDBRANCH   8  29
TORSDOF 9
