REMARK  9 active torsions:
REMARK  status: ('A' for Active; 'I' for Inactive)
REMARK    1  A    between atoms: C02_2  and  N03_3 
REMARK    2  A    between atoms: N03_3  and  C04_4 
REMARK    3  A    between atoms: N03_3  and  C06_6 
REMARK    4  A    between atoms: C06_6  and  C07_7 
REMARK    5  A    between atoms: C07_7  and  O08_8 
REMARK    6  A    between atoms: O08_8  and  C09_9 
REMARK    7  A    between atoms: C12_12  and  N13_13 
REMARK    8  A    between atoms: N13_13  and  C14_14 
REMARK    9  A    between atoms: C21_21  and  C26_26 
ROOT
HETATM    1  C14   D T 601       3.111  -2.182   3.553  1.00 17.92     0.728 A 
HETATM    2  N15   D T 601       3.108  -0.850   3.762  1.00 19.07    -0.044 NA
HETATM    3  C16   D T 601       2.005  -0.090   3.781  1.00 18.16     0.163 A 
HETATM    4  C17   D T 601       0.779  -0.714   3.542  1.00 16.80     0.030 A 
HETATM    5  C18   D T 601       0.779  -2.086   3.282  1.00 18.08     0.151 A 
HETATM    6  N19   D T 601       1.936  -2.780   3.294  1.00 16.91    -0.074 NA
HETATM    7  C20   D T 601      -0.404   0.051   3.534  1.00 17.65     0.034 A 
HETATM    8  C21   D T 601      -0.351   1.431   3.787  1.00 18.53     0.047 A 
HETATM    9  C22   D T 601       0.920   2.012   4.018  1.00 19.48     0.260 A 
HETATM   10  O23   D T 601       0.907   3.247   4.202  1.00 21.52    -0.267 OA
HETATM   11  N24   D T 601       2.079   1.259   4.027  1.00 19.49    -0.301 N 
HETATM   12  C25   D T 601       3.392   1.827   4.291  1.00 20.07     0.161 C 
ENDROOT
BRANCH   1  13
HETATM   13  N13   D T 601       4.269  -2.861   3.570  1.00 20.14    -0.188 N 
HETATM   14 1H13   D T 601       4.216  -3.715   3.238  1.00 24.16     0.184 HD
BRANCH  13  15
HETATM   15  C12   D T 601       5.522  -2.488   4.004  1.00 24.69     0.049 A 
HETATM   16  C11   D T 601       6.394  -3.532   4.409  1.00 26.89     0.033 A 
HETATM   17  C10   D T 601       7.704  -3.243   4.849  1.00 28.95     0.039 A 
HETATM   18  C09   D T 601       8.158  -1.906   4.871  1.00 30.95     0.069 A 
HETATM   19  C35   D T 601       7.304  -0.873   4.443  1.00 28.80     0.039 A 
HETATM   20  C34   D T 601       6.002  -1.169   4.026  1.00 26.81     0.033 A 
BRANCH  18  21
HETATM   21  O08   D T 601       9.421  -1.603   5.245  1.00 36.09    -0.350 OA
BRANCH  21  22
HETATM   22  C07   D T 601       9.567  -0.356   5.978  1.00 42.63     0.195 C 
BRANCH  22  23
HETATM   23  C06   D T 601      10.697  -0.523   7.042  1.00 46.85     0.143 C 
BRANCH  23  24
HETATM   24  N03   D T 601      11.787  -1.489   6.633  1.00 51.06    -0.411 N 
BRANCH  24  25
HETATM   25  C02   D T 601      11.868  -2.902   7.204  1.00 53.85     0.112 C 
HETATM   26  C01   D T 601      10.887  -3.993   6.662  1.00 52.69     0.026 C 
ENDBRANCH  24  25
BRANCH  24  27
HETATM   27  C04   D T 601      12.712  -1.031   5.537  1.00 47.80     0.112 C 
HETATM   28  C05   D T 601      12.117  -0.769   4.126  1.00 44.89     0.026 C 
ENDBRANCH  24  27
ENDBRANCH  23  24
ENDBRANCH  22  23
ENDBRANCH  21  22
ENDBRANCH  18  21
ENDBRANCH  13  15
ENDBRANCH   1  13
BRANCH   8  29
HETATM   29  C26   D T 601      -1.542   2.227   3.803  1.00 21.63     0.023 A 
HETATM   30  C27   D T 601      -2.406   2.201   4.933  1.00 22.75     0.046 A 
HETATM   31 CL28   D T 601      -2.065   1.192   6.243  1.00 22.59    -0.083 Cl
HETATM   32  C29   D T 601      -3.593   2.978   4.984  1.00 24.08     0.025 A 
HETATM   33  C30   D T 601      -3.909   3.840   3.910  1.00 25.63     0.003 A 
HETATM   34  C31   D T 601      -3.056   3.897   2.799  1.00 25.41     0.025 A 
HETATM   35  C32   D T 601      -1.885   3.099   2.745  1.00 23.77     0.046 A 
HETATM   36 CL33   D T 601      -0.902   3.208   1.372  1.00 25.94    -0.083 Cl
ENDBRANCH   8  29
TORSDOF 9
