REMARK  9 active torsions:
REMARK  status: ('A' for Active; 'I' for Inactive)
REMARK    1  A    between atoms: C02_2  and  N03_3 
REMARK    2  A    between atoms: N03_3  and  C04_4 
REMARK    3  A    between atoms: N03_3  and  C06_6 
REMARK    4  A    between atoms: C06_6  and  C07_7 
REMARK    5  A    between atoms: C07_7  and  O08_8 
REMARK    6  A    between atoms: O08_8  and  C09_9 
REMARK    7  A    between atoms: C12_12  and  N13_13 
REMARK    8  A    between atoms: N13_13  and  C14_14 
REMARK    9  A    between atoms: C21_21  and  C26_26 
ROOT
HETATM    1  C14   D T 601       4.197  11.667   2.587  1.00 17.92     0.728 A 
HETATM    2  N15   D T 601       4.073  12.785   1.843  1.00 19.07    -0.044 NA
HETATM    3  C16   D T 601       2.916  13.231   1.335  1.00 18.16     0.163 A 
HETATM    4  C17   D T 601       1.766  12.474   1.570  1.00 16.80     0.030 A 
HETATM    5  C18   D T 601       1.894  11.293   2.303  1.00 18.08     0.151 A 
HETATM    6  N19   D T 601       3.097  10.922   2.789  1.00 16.91    -0.074 NA
HETATM    7  C20   D T 601       0.532  12.898   1.038  1.00 17.65     0.034 A 
HETATM    8  C21   D T 601       0.457  14.087   0.294  1.00 18.53     0.047 A 
HETATM    9  C22   D T 601       1.656  14.811   0.085  1.00 19.48     0.260 A 
HETATM   10  O23   D T 601       1.532  15.840  -0.613  1.00 21.52    -0.267 OA
HETATM   11  N24   D T 601       2.865  14.395   0.608  1.00 19.49    -0.301 N 
HETATM   12  C25   D T 601       4.104  15.136   0.431  1.00 20.07     0.161 C 
ENDROOT
BRANCH   1  13
HETATM   13  N13   D T 601       5.398  11.310   3.067  1.00 20.14    -0.188 N 
HETATM   14 1H13   D T 601       5.440  10.455   3.397  1.00 24.16     0.184 HD
BRANCH  13  15
HETATM   15  C12   D T 601       6.579  12.016   3.146  1.00 24.69     0.049 A 
HETATM   16  C11   D T 601       7.493  11.618   4.156  1.00 26.89     0.033 A 
HETATM   17  C10   D T 601       8.736  12.273   4.297  1.00 28.95     0.039 A 
HETATM   18  C09   D T 601       9.081  13.320   3.416  1.00 30.95     0.069 A 
HETATM   19  C35   D T 601       8.188  13.696   2.397  1.00 28.80     0.039 A 
HETATM   20  C34   D T 601       6.951  13.053   2.276  1.00 26.81     0.033 A 
BRANCH  18  21
HETATM   21  O08   D T 601      10.282  13.935   3.498  1.00 36.09    -0.350 OA
BRANCH  21  22
HETATM   22  C07   D T 601      10.270  15.358   3.200  1.00 42.63     0.195 C 
BRANCH  22  23
HETATM   23  C06   D T 601      11.319  16.075   4.107  1.00 46.85     0.143 C 
BRANCH  23  24
HETATM   24  N03   D T 601      12.510  15.215   4.466  1.00 51.06    -0.411 N 
BRANCH  24  25
HETATM   25  C02   D T 601      12.654  14.568   5.840  1.00 53.85     0.112 C 
HETATM   26  C01   D T 601      11.808  13.294   6.167  1.00 52.69     0.026 C 
ENDBRANCH  24  25
BRANCH  24  27
HETATM   27  C04   D T 601      13.484  14.922   3.355  1.00 47.80     0.112 C 
HETATM   28  C05   D T 601      12.988  14.103   2.132  1.00 44.89     0.026 C 
ENDBRANCH  24  27
ENDBRANCH  23  24
ENDBRANCH  22  23
ENDBRANCH  21  22
ENDBRANCH  18  21
ENDBRANCH  13  15
ENDBRANCH   1  13
BRANCH   8  29
HETATM   29  C26   D T 601      -0.790  14.547  -0.240  1.00 21.63     0.023 A 
HETATM   30  C27   D T 601      -1.739  15.187   0.605  1.00 22.75     0.046 A 
HETATM   31 CL28   D T 601      -1.429  15.362   2.255  1.00 22.59    -0.083 Cl
HETATM   32  C29   D T 601      -2.983  15.659   0.109  1.00 24.08     0.025 A 
HETATM   33  C30   D T 601      -3.275  15.537  -1.268  1.00 25.63     0.003 A 
HETATM   34  C31   D T 601      -2.341  14.932  -2.120  1.00 25.41     0.025 A 
HETATM   35  C32   D T 601      -1.112  14.441  -1.612  1.00 23.77     0.046 A 
HETATM   36 CL33   D T 601      -0.030  13.713  -2.691  1.00 25.94    -0.083 Cl
ENDBRANCH   8  29
TORSDOF 9
