REMARK  9 active torsions:
REMARK  status: ('A' for Active; 'I' for Inactive)
REMARK    1  A    between atoms: C02_2  and  N03_3 
REMARK    2  A    between atoms: N03_3  and  C04_4 
REMARK    3  A    between atoms: N03_3  and  C06_6 
REMARK    4  A    between atoms: C06_6  and  C07_7 
REMARK    5  A    between atoms: C07_7  and  O08_8 
REMARK    6  A    between atoms: O08_8  and  C09_9 
REMARK    7  A    between atoms: C12_12  and  N13_13 
REMARK    8  A    between atoms: N13_13  and  C14_14 
REMARK    9  A    between atoms: C21_21  and  C26_26 
ROOT
HETATM    1  C14   D T 601      14.279   9.801   1.434  1.00 17.92     0.728 A 
HETATM    2  N15   D T 601      14.256  10.913   0.672  1.00 19.07    -0.044 NA
HETATM    3  C16   D T 601      13.139  11.555   0.305  1.00 18.16     0.163 A 
HETATM    4  C17   D T 601      11.916  11.022   0.716  1.00 16.80     0.030 A 
HETATM    5  C18   D T 601      11.930   9.847   1.469  1.00 18.08     0.151 A 
HETATM    6  N19   D T 601      13.102   9.270   1.806  1.00 16.91    -0.074 NA
HETATM    7  C20   D T 601      10.716  11.656   0.336  1.00 17.65     0.034 A 
HETATM    8  C21   D T 601      10.753  12.829  -0.435  1.00 18.53     0.047 A 
HETATM    9  C22   D T 601      12.021  13.321  -0.827  1.00 19.48     0.260 A 
HETATM   10  O23   D T 601      11.988  14.346  -1.540  1.00 21.52    -0.267 OA
HETATM   11  N24   D T 601      13.197  12.699  -0.452  1.00 19.49    -0.301 N 
HETATM   12  C25   D T 601      14.512  13.201  -0.818  1.00 20.07     0.161 C 
ENDROOT
BRANCH   1  13
HETATM   13  N13   D T 601      15.452   9.238   1.764  1.00 20.14    -0.188 N 
HETATM   14 1H13   D T 601      15.386   8.394   2.117  1.00 24.16     0.184 HD
BRANCH  13  15
HETATM   15  C12   D T 601      16.739   9.719   1.661  1.00 24.69     0.049 A 
HETATM   16  C11   D T 601      17.697   9.175   2.556  1.00 26.89     0.033 A 
HETATM   17  C10   D T 601      19.044   9.596   2.508  1.00 28.95     0.039 A 
HETATM   18  C09   D T 601      19.447  10.552   1.550  1.00 30.95     0.069 A 
HETATM   19  C35   D T 601      18.504  11.071   0.644  1.00 28.80     0.039 A 
HETATM   20  C34   D T 601      17.168  10.661   0.712  1.00 26.81     0.033 A 
BRANCH  18  21
HETATM   21  O08   D T 601      20.737  10.940   1.451  1.00 36.09    -0.350 OA
BRANCH  21  22
HETATM   22  C07   D T 601      20.939  12.338   1.105  1.00 42.63     0.195 C 
BRANCH  22  23
HETATM   23  C06   D T 601      22.212  12.864   1.839  1.00 46.85     0.143 C 
BRANCH  23  24
HETATM   24  N03   D T 601      23.268  11.807   2.069  1.00 51.06    -0.411 N 
BRANCH  24  25
HETATM   25  C02   D T 601      23.480  11.163   3.436  1.00 53.85     0.112 C 
HETATM   26  C01   D T 601      22.474  10.067   3.918  1.00 52.69     0.026 C 
ENDBRANCH  24  25
BRANCH  24  27
HETATM   27  C04   D T 601      24.014  11.328   0.852  1.00 47.80     0.112 C 
HETATM   28  C05   D T 601      23.218  10.597  -0.265  1.00 44.89     0.026 C 
ENDBRANCH  24  27
ENDBRANCH  23  24
ENDBRANCH  22  23
ENDBRANCH  21  22
ENDBRANCH  18  21
ENDBRANCH  13  15
ENDBRANCH   1  13
BRANCH   8  29
HETATM   29  C26   D T 601       9.547  13.501  -0.817  1.00 21.63     0.023 A 
HETATM   30  C27   D T 601       8.850  14.313   0.121  1.00 22.75     0.046 A 
HETATM   31 CL28   D T 601       9.408  14.450   1.709  1.00 22.59    -0.083 Cl
HETATM   32  C29   D T 601       7.655  14.996  -0.224  1.00 24.08     0.025 A 
HETATM   33  C30   D T 601       7.161  14.912  -1.545  1.00 25.63     0.003 A 
HETATM   34  C31   D T 601       7.847  14.136  -2.489  1.00 25.41     0.025 A 
HETATM   35  C32   D T 601       9.027  13.437  -2.130  1.00 23.77     0.046 A 
HETATM   36 CL33   D T 601       9.805  12.512  -3.314  1.00 25.94    -0.083 Cl
ENDBRANCH   8  29
TORSDOF 9
