REMARK  2 active torsions:
REMARK  status: ('A' for Active; 'I' for Inactive)
REMARK    1  A    between atoms: C5_4  and  O7_13 
REMARK    2  A    between atoms: C8_10  and  O7_13 
ROOT
HETATM    1  O7    D T 502     -43.941  49.122 -16.791  1.00 23.89    -0.304 OA
ENDROOT
BRANCH   1   2
HETATM    2  C5    D T 502     -42.970  48.888 -15.826  1.00 20.81     0.125 A 
HETATM    3  C6    D T 502     -42.866  49.751 -14.729  1.00 21.92     0.154 A 
HETATM    4  C1    D T 502     -41.921  49.497 -13.747  1.00 19.69     0.041 A 
HETATM    5  O17   D T 502     -43.673  50.843 -14.627  1.00 20.99    -0.188 OA
HETATM    6  C2    D T 502     -41.089  48.405 -13.879  1.00 21.88     0.060 A 
HETATM    7  C3    D T 502     -41.171  47.560 -14.959  1.00 22.84     0.014 A 
HETATM    8 CL14   D T 502     -39.909  48.080 -12.635  1.00 24.13    -0.082 Cl
HETATM    9  C4    D T 502     -42.120  47.800 -15.935  1.00 24.38     0.028 A 
ENDBRANCH   1   2
BRANCH   1  10
HETATM   10  C8    D T 502     -43.598  49.850 -17.928  1.00 25.40     0.111 A 
HETATM   11  C9    D T 502     -44.556  50.025 -18.922  1.00 25.57     0.081 A 
HETATM   12  C10   D T 502     -44.258  50.677 -20.097  1.00 22.48     0.025 A 
HETATM   13 CL16   D T 502     -46.120  49.301 -18.749  1.00 35.41    -0.080 Cl
HETATM   14  C11   D T 502     -42.978  51.135 -20.287  1.00 29.03     0.059 A 
HETATM   15  C12   D T 502     -42.011  51.013 -19.311  1.00 24.01     0.013 A 
HETATM   16 CL15   D T 502     -42.544  51.773 -21.847  1.00 33.00    -0.082 Cl
HETATM   17  C13   D T 502     -42.322  50.370 -18.122  1.00 27.52     0.026 A 
ENDBRANCH   1  10
TORSDOF 2
