REMARK  2 active torsions:
REMARK  status: ('A' for Active; 'I' for Inactive)
REMARK    1  A    between atoms: CAX_24  and  NBD_30 
REMARK    2  A    between atoms: CAY_25  and  CAZ_26 
ROOT
HETATM    1  CAE   D T 501      -9.461  26.612   8.298  1.00 28.11     0.002 A 
HETATM    2  CAF   D T 501      -9.192  24.232   8.027  1.00 31.06     0.002 A 
HETATM    3  CAG   D T 501      -9.598  26.744   6.906  1.00 28.67     0.017 A 
HETATM    4  CAH   D T 501      -9.299  24.366   6.636  1.00 30.46     0.017 A 
HETATM    5  CAK   D T 501      -9.281  23.962  10.945  1.00 23.78     0.102 A 
HETATM    6  CAL   D T 501      -7.986  26.411  14.556  1.00 24.69     0.124 A 
HETATM    7  CAM   D T 501      -8.676  26.273  11.000  1.00 24.63     0.104 A 
HETATM    8  NAS   D T 501      -9.058  23.877  12.273  1.00 20.85    -0.225 NA
HETATM    9  NAT   D T 501      -8.022  27.146  13.411  1.00 25.16    -0.162 NA
HETATM   10  CAV   D T 501      -9.283  25.348   8.865  1.00 25.80     0.003 A 
HETATM   11  CAW   D T 501      -9.116  25.191  10.265  1.00 25.02     0.038 A 
HETATM   12  CAX   D T 501      -9.484  25.634   6.075  1.00 27.25     0.056 A 
HETATM   13  CAZ   D T 501      -8.328  25.238  14.239  1.00 24.84     0.057 A 
HETATM   14  CBC   D T 501      -8.652  24.945  12.987  1.00 23.94     0.165 A 
HETATM   15  NBE   D T 501      -8.465  26.166  12.324  1.00 26.21    -0.211 N 
ENDROOT
BRANCH  13  16
HETATM   16  CAY   D T 501      -8.368  24.311  15.330  1.00 23.50     0.007 A 
HETATM   17  CAD   D T 501      -9.028  24.688  16.465  1.00 28.61     0.021 A 
HETATM   18  CAC   D T 501      -9.078  23.855  17.567  1.00 31.28     0.099 A 
HETATM   19  NAR   D T 501      -8.489  22.670  17.582  1.00 29.97    -0.244 NA
HETATM   20  CBA   D T 501      -7.827  22.225  16.513  1.00 29.39     0.081 A 
HETATM   21  CAI   D T 501      -7.204  20.965  16.537  1.00 24.64     0.019 A 
HETATM   22  CBB   D T 501      -7.720  23.045  15.336  1.00 25.45     0.018 A 
HETATM   23  CAA   D T 501      -6.500  20.526  15.448  1.00 25.05     0.002 A 
HETATM   24  CAB   D T 501      -6.391  21.295  14.315  1.00 24.88     0.000 A 
HETATM   25  CAJ   D T 501      -6.982  22.550  14.253  1.00 27.86     0.002 A 
ENDBRANCH  13  16
BRANCH  12  26
HETATM   26  NBD   D T 501      -9.600  25.793   4.596  1.00 33.43    -0.344 N 
HETATM   27  CAP   D T 501      -9.398  24.587   3.790  1.00 26.51     0.140 C 
HETATM   28  CAN   D T 501      -7.870  24.532   3.454  1.00 28.69     0.314 C 
HETATM   29  NAU   D T 501      -7.415  25.760   2.900  1.00 26.40     0.343 N 
HETATM   30  CAO   D T 501      -7.627  26.903   3.749  1.00 27.47     0.314 C 
HETATM   31  CAQ   D T 501      -9.130  27.046   4.046  1.00 29.57     0.140 C 
ENDBRANCH  12  26
TORSDOF 2
