REMARK  11 active torsions:
REMARK  status: ('A' for Active; 'I' for Inactive)
REMARK    1  A    between atoms: NAP_5  and  CAO_6 
REMARK    2  A    between atoms: CAO_6  and  CAN_7 
REMARK    3  A    between atoms: CAN_7  and  OAM_8 
REMARK    4  A    between atoms: OAM_8  and  CAJ_9 
REMARK    5  A    between atoms: CAG_14  and  NAF_15 
REMARK    6  A    between atoms: NAF_15  and  C2_16 
REMARK    7  A    between atoms: C4_22  and  NAW_23 
REMARK    8  A    between atoms: NAW_23  and  CAX_24 
REMARK    9  A    between atoms: CBB_29  and  SBD_30 
REMARK   10  A    between atoms: SBD_30  and  NBE_33 
REMARK   11  A    between atoms: NBE_33  and  CBF_34 
ROOT
HETATM    1  C2    D T1201      35.068   1.021  14.577  1.00 59.36     0.751 A 
HETATM    2  N3    D T1201      34.564   0.245  13.630  1.00 55.19    -0.041 NA
HETATM    3  N1    D T1201      34.323   1.880  15.264  1.00 67.11    -0.058 NA
HETATM    4  C6    D T1201      33.024   1.987  15.025  1.00 64.11     0.117 A 
HETATM    5  C5    D T1201      32.448   1.192  14.040  1.00 65.49     0.034 A 
HETATM    6  CAA   D T1201      30.959   1.269  13.708  1.00 49.68     0.036 C 
HETATM    7  C4    D T1201      33.278   0.313  13.340  1.00 58.40     0.178 A 
ENDROOT
BRANCH   1   8
HETATM    8  NAF   D T1201      36.475   0.953  14.912  1.00 62.85    -0.059 NA
BRANCH   8   9
HETATM    9  CAG   D T1201      37.533   0.231  14.211  1.00 53.07     0.100 A 
HETATM   10  CAL   D T1201      38.811   0.566  14.604  1.00 60.66     0.022 A 
HETATM   11  CAK   D T1201      39.911  -0.038  14.015  1.00 75.71     0.026 A 
HETATM   12  CAJ   D T1201      39.735  -0.986  13.023  1.00 62.98     0.094 A 
HETATM   13  CAI   D T1201      38.444  -1.334  12.621  1.00 62.12     0.026 A 
HETATM   14  CAH   D T1201      37.340  -0.728  13.215  1.00 51.41     0.022 A 
BRANCH  12  15
HETATM   15  OAM   D T1201      40.883  -1.570  12.479  1.00 60.42    -0.329 OA
BRANCH  15  16
HETATM   16  CAN   D T1201      40.940  -1.634  11.078  1.00 90.12     0.184 C 
BRANCH  16  17
HETATM   17  CAO   D T1201      42.215  -2.410  10.705  1.00 96.40     0.283 C 
BRANCH  17  18
HETATM   18  NAP   D T1201      42.900  -1.904   9.848  1.00 98.57     0.140 N 
HETATM   19  CAQ   D T1201      42.507  -2.239   8.680  1.00 96.89     0.250 C 
HETATM   20  CAR   D T1201      42.939  -1.017   7.711  1.00 91.95     0.037 C 
HETATM   21  CAS   D T1201      42.826   0.032   8.406  1.00 99.10     0.037 C 
HETATM   22  CAT   D T1201      42.962  -0.389   9.887  1.00 98.40     0.250 C 
ENDBRANCH  17  18
ENDBRANCH  16  17
ENDBRANCH  15  16
ENDBRANCH  12  15
ENDBRANCH   8   9
ENDBRANCH   1   8
BRANCH   7  23
HETATM   23  NAW   D T1201      32.679  -0.513  12.309  1.00 64.56    -0.227 NA
BRANCH  23  24
HETATM   24  CAX   D T1201      33.418  -1.392  11.437  1.00 60.00     0.084 A 
HETATM   25  CBC   D T1201      32.775  -2.530  10.991  1.00 61.36     0.032 A 
HETATM   26  CBB   D T1201      33.434  -3.406  10.153  1.00 64.43     0.106 A 
HETATM   27  CBA   D T1201      34.732  -3.150   9.774  1.00 52.93     0.013 A 
HETATM   28  CAZ   D T1201      35.384  -2.005  10.218  1.00 65.17     0.002 A 
HETATM   29  CAY   D T1201      34.724  -1.117  11.057  1.00 59.73     0.019 A 
BRANCH  26  30
HETATM   30  SBD   D T1201      32.578  -4.901   9.549  1.00107.25     0.281 S 
HETATM   31  OBJ   D T1201      33.433  -6.045   9.866  1.00 84.83    -0.199 OA
HETATM   32  OBK   D T1201      31.425  -5.233  10.388  1.00 96.98    -0.199 OA
BRANCH  30  33
HETATM   33  NBE   D T1201      32.192  -4.842   7.847  1.00 87.06    -0.189 NA
BRANCH  33  34
HETATM   34  CBF   D T1201      31.483  -3.776   7.109  1.00 65.85     0.097 C 
HETATM   35  CBH   D T1201      30.099  -3.481   7.657  1.00 75.28     0.025 C 
HETATM   36  CBI   D T1201      31.243  -4.203   5.673  1.00 63.96     0.025 C 
HETATM   37  CBG   D T1201      32.290  -2.481   7.075  1.00 65.02     0.025 C 
ENDBRANCH  33  34
ENDBRANCH  30  33
ENDBRANCH  26  30
ENDBRANCH  23  24
ENDBRANCH   7  23
TORSDOF 11
