REMARK  19 active torsions:
REMARK  status: ('A' for Active; 'I' for Inactive)
REMARK    1  A    between atoms: C2_2  and  C6_6 
REMARK    2  A    between atoms: C6_6  and  O7_7 
REMARK    3  A    between atoms: O7_7  and  C10_8 
REMARK       I    between atoms: C10_8  and  N11_10 
REMARK    4  A    between atoms: N11_10  and  C12_11 
REMARK    5  A    between atoms: C12_11  and  C13_12 
REMARK    6  A    between atoms: C12_11  and  C26_15 
REMARK    7  A    between atoms: C13_12  and  C14_13 
REMARK    8  A    between atoms: C13_12  and  O41_22 
REMARK    9  A    between atoms: C14_13  and  C15_14 
REMARK   10  A    between atoms: C15_14  and  C44_23 
REMARK   11  A    between atoms: C15_14  and  N58_30 
REMARK   12  A    between atoms: C26_15  and  C28_16 
REMARK   13  A    between atoms: C44_23  and  C45_24 
REMARK       I    between atoms: N58_30  and  C18_33 
REMARK   14  A    between atoms: N20_31  and  C19_32 
REMARK       I    between atoms: N20_31  and  C21_38 
REMARK   15  A    between atoms: C19_32  and  C18_33 
REMARK   16  A    between atoms: C19_32  and  C62_35 
REMARK       I    between atoms: C21_38  and  N74_39 
REMARK   17  A    between atoms: N74_39  and  C75_40 
REMARK   18  A    between atoms: C75_40  and  C77_42 
REMARK   19  A    between atoms: C82_45  and  C85_47 
ROOT
HETATM    1  C15   D T 401      13.514  17.943  -9.196  1.00 55.13     0.091 C 
ENDROOT
BRANCH   1   2
HETATM    2  C14   D T 401      12.012  17.687  -9.263  1.00 56.49     0.059 C 
BRANCH   2   3
HETATM    3  C13   D T 401      11.457  17.656 -10.679  1.00 52.85     0.143 C 
BRANCH   3   4
HETATM    4  C12   D T 401      11.567  16.292 -11.326  1.00 51.97     0.119 C 
BRANCH   4   5
HETATM    5  N11   D T 401      10.698  15.335 -10.675  1.00 54.53    -0.329 N 
HETATM    6  C10   D T 401      11.107  14.128 -10.318  1.00 57.55     0.361 C 
HETATM    7  O24   D T 401      12.234  13.704 -10.517  1.00 50.79    -0.238 OA
HETATM    8  H11   D T 401       9.744  15.610 -10.492  1.00 65.46     0.165 HD
BRANCH   6   9
HETATM    9  O7    D T 401      10.138  13.284  -9.665  1.00 56.36    -0.299 OA
BRANCH   9  10
HETATM   10  C6    D T 401      10.628  12.215  -8.945  1.00 61.93     0.228 C 
BRANCH  10  11
HETATM   11  C2    D T 401       9.959  10.959  -9.394  1.00 76.84     0.022 A 
HETATM   12  C1    D T 401      10.397   9.706  -9.787  1.00 77.89     0.128 A 
HETATM   13  N5    D T 401       9.350   8.902 -10.100  1.00 89.70    -0.282 NA
HETATM   14  C4    D T 401       8.130   9.481  -9.961  1.00 85.46     0.208 A 
HETATM   15  S3    D T 401       8.251  11.131  -9.417  1.00 90.97    -0.100 SA
ENDBRANCH  10  11
ENDBRANCH   9  10
ENDBRANCH   6   9
ENDBRANCH   4   5
BRANCH   4  16
HETATM   16  C26   D T 401      11.171  16.365 -12.802  1.00 53.54     0.066 C 
BRANCH  16  17
HETATM   17  C28   D T 401      11.221  14.964 -13.332  1.00 51.74    -0.056 A 
HETATM   18  C31   D T 401      12.448  14.409 -13.633  1.00 56.62     0.007 A 
HETATM   19  C32   D T 401      12.521  13.112 -14.112  1.00 61.24     0.001 A 
HETATM   20  C33   D T 401      11.363  12.366 -14.266  1.00 57.56     0.000 A 
HETATM   21  C34   D T 401      10.134  12.931 -13.946  1.00 57.29     0.001 A 
HETATM   22  C35   D T 401      10.063  14.236 -13.470  1.00 54.64     0.007 A 
ENDBRANCH  16  17
ENDBRANCH   4  16
ENDBRANCH   3   4
BRANCH   3  23
HETATM   23  O41   D T 401      10.069  18.042 -10.573  1.00 46.89    -0.393 OA
HETATM   24  HO4   D T 401      10.009  18.998 -10.441  1.00 56.30     0.210 HD
ENDBRANCH   3  23
ENDBRANCH   2   3
ENDBRANCH   1   2
BRANCH   1  25
HETATM   25  C44   D T 401      13.716  18.766  -7.930  1.00 57.31     0.063 C 
BRANCH  25  26
HETATM   26  C45   D T 401      15.049  18.439  -7.337  1.00 62.23    -0.056 A 
HETATM   27  C48   D T 401      16.106  19.313  -7.512  1.00 68.40     0.007 A 
HETATM   28  C49   D T 401      17.341  19.010  -6.952  1.00 68.89     0.001 A 
HETATM   29  C50   D T 401      17.511  17.839  -6.222  1.00 70.95     0.000 A 
HETATM   30  C51   D T 401      16.442  16.969  -6.050  1.00 69.71     0.001 A 
HETATM   31  C52   D T 401      15.204  17.272  -6.608  1.00 63.86     0.007 A 
ENDBRANCH  25  26
ENDBRANCH   1  25
BRANCH   1  32
HETATM   32  N58   D T 401      14.005  18.659 -10.352  1.00 57.14    -0.354 N 
HETATM   33  C18   D T 401      14.997  18.110 -11.048  1.00 63.33     0.241 C 
HETATM   34  O61   D T 401      15.423  17.010 -10.748  1.00 56.06    -0.271 OA
HETATM   35  H58   D T 401      13.600  19.546 -10.614  1.00 68.60     0.162 HD
BRANCH  33  36
HETATM   36  C19   D T 401      15.595  18.858 -12.190  1.00 62.97     0.181 C 
BRANCH  36  37
HETATM   37  N20   D T 401      16.891  19.503 -11.956  1.00 62.86    -0.329 N 
HETATM   38  C21   D T 401      16.993  20.760 -11.588  1.00 67.85     0.319 C 
HETATM   39  N74   D T 401      18.086  21.163 -10.971  1.00 70.47    -0.333 N 
HETATM   40  O76   D T 401      16.082  21.536 -11.769  1.00 58.01    -0.247 OA
HETATM   41  C95   D T 401      19.354  20.470 -10.980  1.00 68.34     0.154 C 
HETATM   42  H20   D T 401      17.727  18.951 -12.085  1.00 75.47     0.165 HD
BRANCH  39  43
HETATM   43  C75   D T 401      18.078  22.394 -10.185  1.00 68.98     0.183 C 
BRANCH  43  44
HETATM   44  C77   D T 401      18.980  23.320 -10.942  1.00 78.58     0.047 A 
HETATM   45  C80   D T 401      18.877  23.477 -12.312  1.00 85.18     0.122 A 
HETATM   46  S81   D T 401      20.052  24.588 -12.923  1.00 94.63    -0.102 SA
HETATM   47  C82   D T 401      20.619  24.759 -11.305  1.00 83.84     0.075 A 
HETATM   48  N83   D T 401      19.970  24.029 -10.391  1.00 84.20    -0.252 NA
BRANCH  47  49
HETATM   49  C85   D T 401      21.737  25.687 -11.156  1.00 85.08     0.036 C 
HETATM   50  C86   D T 401      22.768  24.989 -10.358  1.00 89.40     0.016 C 
HETATM   51  C90   D T 401      22.136  26.204 -12.515  1.00 90.17     0.016 C 
ENDBRANCH  47  49
ENDBRANCH  43  44
ENDBRANCH  39  43
ENDBRANCH  36  37
BRANCH  36  52
HETATM   52  C62   D T 401      15.939  17.837 -13.280  1.00 69.84     0.009 C 
HETATM   53  C64   D T 401      14.712  17.280 -13.975  1.00 64.64     0.012 C 
HETATM   54  C68   D T 401      16.882  18.450 -14.311  1.00 69.88     0.012 C 
ENDBRANCH  36  52
ENDBRANCH  33  36
ENDBRANCH   1  32
TORSDOF 19
