REMARK  2 active torsions:
REMARK  status: ('A' for Active; 'I' for Inactive)
REMARK    1  A    between atoms: C5_4  and  O7_13 
REMARK    2  A    between atoms: C8_10  and  O7_13 
ROOT
HETATM    1  O7    D T 302       7.570  27.947  15.683  1.00 32.50    -0.304 OA
ENDROOT
BRANCH   1   2
HETATM    2  C5    D T 302       6.946  28.362  14.517  1.00 32.49     0.125 A 
HETATM    3  C6    D T 302       7.648  29.287  13.719  1.00 34.76     0.154 A 
HETATM    4  C1    D T 302       7.078  29.761  12.548  1.00 31.51     0.041 A 
HETATM    5  O17   D T 302       8.883  29.688  14.144  1.00 36.08    -0.188 OA
HETATM    6  C2    D T 302       5.805  29.343  12.199  1.00 34.46     0.060 A 
HETATM    7  C3    D T 302       5.112  28.432  12.979  1.00 34.68     0.014 A 
HETATM    8 CL14   D T 302       5.060  29.989  10.760  1.00 37.27    -0.082 Cl
HETATM    9  C4    D T 302       5.690  27.941  14.141  1.00 32.81     0.028 A 
ENDBRANCH   1   2
BRANCH   1  10
HETATM   10  C8    D T 302       7.395  28.730  16.828  1.00 37.25     0.111 A 
HETATM   11  C9    D T 302       7.943  28.269  18.015  1.00 38.38     0.081 A 
HETATM   12  C10   D T 302       7.804  28.958  19.205  1.00 40.82     0.025 A 
HETATM   13 CL16   D T 302       8.799  26.770  18.007  1.00 44.81    -0.080 Cl
HETATM   14  C11   D T 302       7.079  30.141  19.203  1.00 44.65     0.059 A 
HETATM   15  C12   D T 302       6.535  30.638  18.034  1.00 39.54     0.013 A 
HETATM   16 CL15   D T 302       6.869  31.003  20.708  1.00 46.21    -0.082 Cl
HETATM   17  C13   D T 302       6.694  29.933  16.845  1.00 39.31     0.026 A 
ENDBRANCH   1  10
TORSDOF 2
