REMARK  5 active torsions:
REMARK  status: ('A' for Active; 'I' for Inactive)
REMARK    1  A    between atoms: C13_1  and  C24_5 
REMARK    2  A    between atoms: C15_2  and  N17_25 
REMARK    3  A    between atoms: C02_8  and  C03_9 
REMARK    4  A    between atoms: C02_8  and  N10_23 
REMARK    5  A    between atoms: C18_18  and  N17_25 
ROOT
HETATM    1  C13   D T1201       4.216 -14.754   5.205  1.00 13.45    -0.016 A 
HETATM    2  C15   D T1201       4.112 -13.193   7.073  1.00 15.16     0.132 A 
HETATM    3  C11   D T1201       3.346 -15.394   7.392  1.00 14.53     0.127 A 
HETATM    4  C12   D T1201       3.666 -15.727   6.073  1.00 14.32     0.062 A 
HETATM    5  C14   D T1201       4.462 -13.476   5.759  1.00 15.48     0.063 A 
HETATM    6  N10   D T1201       2.787 -16.282   8.246  1.00 15.96    -0.366 N 
HETATM    7  N16   D T1201       3.574 -14.132   7.870  1.00 13.41    -0.214 NA
HETATM    8 1H10   D T1201       2.632 -17.249   7.938  1.00 19.16     0.161 HD
ENDROOT
BRANCH   6   9
HETATM    9  C02   D T1201       2.373 -15.980   9.609  1.00 14.28     0.112 C 
HETATM   10  C01   D T1201       1.389 -17.018  10.124  1.00 15.05     0.037 C 
BRANCH   9  11
HETATM   11  C03   D T1201       3.608 -15.891  10.591  1.00 12.81    -0.036 A 
HETATM   12  C04   D T1201       4.753 -16.717  10.428  1.00 14.87     0.012 A 
HETATM   13  C05   D T1201       5.828 -16.669  11.317  1.00 15.83     0.043 A 
HETATM   14  C06   D T1201       5.786 -15.784  12.433  1.00 15.79     0.116 A 
HETATM   15  C07   D T1201       4.655 -14.953  12.585  1.00 13.70     0.043 A 
HETATM   16  F09   D T1201       6.777 -15.692  13.279  1.00 15.90    -0.206 F 
HETATM   17  C08   D T1201       3.613 -15.019  11.688  1.00 12.07     0.012 A 
ENDBRANCH   9  11
ENDBRANCH   6   9
BRANCH   1  18
HETATM   18  C24   D T1201       4.646 -15.101   3.846  1.00 16.85     0.011 A 
HETATM   19  C28   D T1201       4.573 -16.375   3.177  1.00 24.34     0.152 A 
HETATM   20  N27   D T1201       5.139 -16.313   1.959  1.00 26.13    -0.185 NA
HETATM   21  N26   D T1201       5.608 -15.065   1.793  1.00 20.67    -0.285 N 
HETATM   22  C25   D T1201       5.335 -14.296   2.918  1.00 19.70     0.125 A 
HETATM   23  C29   D T1201       6.368 -14.536   0.486  1.00 21.32     0.179 C 
ENDBRANCH   1  18
BRANCH   2  24
HETATM   24  N17   D T1201       4.361 -11.926   7.549  1.00 13.89    -0.324 N 
HETATM   25 1H17   D T1201       4.806 -11.268   6.877  1.00 16.67     0.169 HD
BRANCH  24  26
HETATM   26  C18   D T1201       4.115 -11.391   8.777  1.00 12.52     0.146 A 
HETATM   27  C23   D T1201       3.338 -12.027   9.810  1.00 13.01     0.166 A 
HETATM   28  N22   D T1201       3.144 -11.446  11.003  1.00 12.07    -0.268 NA
HETATM   29  C21   D T1201       3.671 -10.218  11.211  1.00 13.05     0.135 A 
HETATM   30  C20   D T1201       4.444  -9.617  10.207  1.00 11.83     0.138 A 
HETATM   31  N19   D T1201       4.643 -10.187   9.028  1.00 12.49    -0.240 NA
ENDBRANCH  24  26
ENDBRANCH   2  24
TORSDOF 5
