REMARK  5 active torsions:
REMARK  status: ('A' for Active; 'I' for Inactive)
REMARK    1  A    between atoms: C8_4  and  N5_32 
REMARK    2  A    between atoms: C10_6  and  O31_11 
REMARK    3  A    between atoms: C19_10  and  C21_16 
REMARK    4  A    between atoms: C11_13  and  N14_26 
REMARK    5  A    between atoms: C15_15  and  N14_26 
ROOT
HETATM    1  C17   D T 501     -17.178 -23.859   4.644  1.00 40.83     0.120 A 
HETATM    2  C18   D T 501     -16.527 -23.968   3.420  1.00 36.91     0.041 A 
HETATM    3  C19   D T 501     -17.121 -24.788   2.474  1.00 32.67     0.103 A 
HETATM    4  C15   D T 501     -18.812 -25.274   3.949  1.00 35.44     0.750 A 
HETATM    5  N16   D T 501     -18.322 -24.510   4.937  1.00 32.69    -0.058 NA
HETATM    6  N20   D T 501     -18.254 -25.461   2.719  1.00 30.98    -0.059 NA
ENDROOT
BRANCH   4   7
HETATM    7  N14   D T 501     -19.852 -26.100   4.158  1.00 32.94    -0.057 NA
BRANCH   7   8
HETATM    8  C11   D T 501     -20.718 -26.827   3.336  1.00 30.33     0.122 A 
HETATM    9  C10   D T 501     -21.391 -27.890   3.929  1.00 42.36     0.114 A 
HETATM   10  C9    D T 501     -22.189 -28.730   3.180  1.00 32.54     0.043 A 
HETATM   11  C8    D T 501     -22.347 -28.506   1.810  1.00 36.74     0.058 A 
HETATM   12  C13   D T 501     -21.681 -27.420   1.214  1.00 33.13     0.019 A 
HETATM   13  C12   D T 501     -20.878 -26.578   1.966  1.00 32.95     0.023 A 
BRANCH   9  14
HETATM   14  O31   D T 501     -21.147 -28.049   5.266  1.00 39.47    -0.327 OA
HETATM   15  C32   D T 501     -21.701 -29.221   5.900  1.00 35.80     0.181 C 
ENDBRANCH   9  14
BRANCH  11  16
HETATM   16  N5    D T 501     -23.117 -29.339   1.058  1.00 36.23    -0.344 N 
HETATM   17  C6    D T 501     -24.472 -29.612   1.555  1.00 36.45     0.137 C 
HETATM   18  C7    D T 501     -25.080 -30.815   0.827  1.00 37.09     0.274 C 
HETATM   19  N2    D T 501     -25.068 -30.588  -0.646  1.00 41.14     0.143 N 
HETATM   20  C3    D T 501     -23.671 -30.363  -1.115  1.00 42.05     0.274 C 
HETATM   21  C1    D T 501     -25.710 -31.713  -1.379  1.00 43.53     0.286 C 
HETATM   22  C4    D T 501     -23.054 -29.169  -0.400  1.00 39.69     0.137 C 
ENDBRANCH  11  16
ENDBRANCH   7   8
ENDBRANCH   4   7
BRANCH   3  23
HETATM   23  C21   D T 501     -16.647 -24.863   1.068  1.00 32.17     0.037 A 
HETATM   24  C22   D T 501     -17.361 -25.304   0.002  1.00 27.11     0.078 A 
HETATM   25  N23   D T 501     -16.655 -25.145  -1.164  1.00 32.26    -0.323 N 
HETATM   26  C30   D T 501     -17.147 -25.436  -2.500  1.00 31.34     0.131 C 
HETATM   27  C24   D T 501     -15.433 -24.581  -0.866  1.00 35.93     0.080 A 
HETATM   28  C25   D T 501     -15.377 -24.385   0.521  1.00 30.14     0.022 A 
HETATM   29  C29   D T 501     -14.392 -24.151  -1.679  1.00 35.24     0.116 A 
HETATM   30  C26   D T 501     -14.255 -23.762   1.060  1.00 31.67     0.022 A 
HETATM   31  C27   D T 501     -13.264 -23.368   0.177  1.00 34.54     0.099 A 
HETATM   32  N28   D T 501     -13.317 -23.548  -1.155  1.00 34.98    -0.241 NA
ENDBRANCH   3  23
TORSDOF 5
