REMARK  10 active torsions:
REMARK  status: ('A' for Active; 'I' for Inactive)
REMARK    1  A    between atoms: C15_2  and  N16_35 
REMARK    2  A    between atoms: C17_3  and  C18_17 
REMARK       I    between atoms: C17_3  and  N16_35 
REMARK    3  A    between atoms: C20_4  and  C19_18 
REMARK    4  A    between atoms: C20_4  and  N21_36 
REMARK    5  A    between atoms: C05_10  and  N06_33 
REMARK    6  A    between atoms: C07_11  and  N06_33 
REMARK    7  A    between atoms: C09_13  and  N10_34 
REMARK    8  A    between atoms: C11_14  and  C12_15 
REMARK       I    between atoms: C11_14  and  N10_34 
REMARK    9  A    between atoms: C18_17  and  C19_18 
REMARK   10  A    between atoms: C32_23  and  C33_24 
ROOT
HETATM    1  C28   D T 401     160.800 138.500 123.981  1.00 21.18     0.019 A 
HETATM    2  C07   D T 401     158.085 138.543 123.349  1.00 19.06     0.101 A 
HETATM    3  C08   D T 401     159.020 139.065 122.464  1.00 16.94     0.039 A 
HETATM    4  C09   D T 401     160.367 139.044 122.782  1.00 21.45     0.086 A 
HETATM    5  C29   D T 401     159.870 137.976 124.872  1.00 19.78     0.003 A 
HETATM    6  C30   D T 401     158.518 138.000 124.552  1.00 21.58     0.020 A 
ENDROOT
BRANCH   4   7
HETATM    7  N10   D T 401     161.333 139.592 121.829  1.00 19.17    -0.208 NA
HETATM    8  C11   D T 401     161.842 140.954 121.959  1.00 22.26     0.279 C 
HETATM    9  O27   D T 401     161.488 141.657 122.845  1.00 26.07    -0.265 OA
BRANCH   8  10
HETATM   10  C12   D T 401     162.860 141.427 120.901  1.00 24.43     0.058 A 
HETATM   11  C13   D T 401     163.711 142.500 121.137  1.00 19.42     0.006 A 
HETATM   12  C14   D T 401     164.624 142.881 120.154  1.00 22.31     0.019 A 
HETATM   13  C15   D T 401     164.678 142.199 118.942  1.00 21.62     0.084 A 
HETATM   14  C25   D T 401     163.830 141.123 118.721  1.00 21.42     0.019 A 
HETATM   15  C26   D T 401     162.920 140.740 119.699  1.00 21.95     0.006 A 
BRANCH  13  16
HETATM   16  N16   D T 401     165.628 142.559 117.879  1.00 25.51    -0.212 NA
HETATM   17  C17   D T 401     166.235 143.877 117.684  1.00 24.13     0.256 C 
HETATM   18  O24   D T 401     165.988 144.791 118.391  1.00 25.64    -0.270 OA
BRANCH  17  19
HETATM   19  C18   D T 401     167.215 144.058 116.513  1.00 23.56     0.092 C 
BRANCH  19  20
HETATM   20  C19   D T 401     168.682 143.977 116.953  1.00 23.00     0.045 C 
BRANCH  20  21
HETATM   21  C20   D T 401     168.935 142.907 118.025  1.00 23.91     0.251 C 
BRANCH  21  22
HETATM   22  N21   D T 401     170.099 142.071 117.746  1.00 24.92     0.141 N 
HETATM   23  C22   D T 401     171.251 142.545 118.492  1.00 20.50     0.285 C 
HETATM   24  C23   D T 401     170.411 142.009 116.326  1.00 22.52     0.285 C 
ENDBRANCH  21  22
ENDBRANCH  20  21
ENDBRANCH  19  20
ENDBRANCH  17  19
ENDBRANCH  13  16
ENDBRANCH   8  10
ENDBRANCH   4   7
BRANCH   2  25
HETATM   25  N06   D T 401     156.676 138.600 122.953  1.00 17.51    -0.059 NA
BRANCH  25  26
HETATM   26  C05   D T 401     155.558 137.950 123.638  1.00 12.97     0.750 A 
HETATM   27  N04   D T 401     154.480 137.681 122.933  1.00 12.15    -0.057 NA
HETATM   28  C03   D T 401     153.424 137.105 123.476  1.00 11.33     0.131 A 
HETATM   29  C02   D T 401     153.458 136.782 124.825  1.00 11.26     0.096 A 
HETATM   30  C32   D T 401     154.603 137.081 125.559  1.00 14.70     0.113 A 
HETATM   31 CL01   D T 401     152.031 136.002 125.558  1.00 21.09    -0.079 Cl
HETATM   32  N31   D T 401     155.608 137.660 124.923  1.00 12.85    -0.058 NA
BRANCH  30  33
HETATM   33  C33   D T 401     154.751 136.774 127.053  1.00 15.44     0.040 A 
HETATM   34  C34   D T 401     153.756 136.792 128.018  1.00 16.40     0.101 A 
HETATM   35  N35   D T 401     154.311 136.478 129.187  1.00 15.92    -0.244 NA
HETATM   36  C36   D T 401     155.649 136.264 129.016  1.00 17.01     0.082 A 
HETATM   37  C37   D T 401     156.662 135.913 129.948  1.00 19.80     0.019 A 
HETATM   38  C41   D T 401     155.964 136.444 127.699  1.00 17.83     0.021 A 
HETATM   39  C38   D T 401     157.972 135.751 129.519  1.00 21.73     0.002 A 
HETATM   40  C39   D T 401     158.294 135.936 128.175  1.00 19.54     0.000 A 
HETATM   41  C40   D T 401     157.300 136.281 127.263  1.00 19.06     0.002 A 
ENDBRANCH  30  33
ENDBRANCH  25  26
ENDBRANCH   2  25
TORSDOF 10
