REMARK  6 active torsions:
REMARK  status: ('A' for Active; 'I' for Inactive)
REMARK       I    between atoms: N1_1  and  C25_25 
REMARK    1  A    between atoms: C3_3  and  N5_5 
REMARK       I    between atoms: N5_5  and  C6_6 
REMARK    2  A    between atoms: C6_6  and  C7_7 
REMARK    3  A    between atoms: N17_17  and  C24_24 
REMARK    4  A    between atoms: C25_25  and  C20_32 
REMARK    5  A    between atoms: C27_27  and  C20_32 
REMARK    6  A    between atoms: C20_32  and  O34_35 
ROOT
HETATM    1  N1    D T 510     -21.518 -17.460 -27.108  1.00 27.33    -0.308 N 
HETATM    2  N2    D T 510     -18.628 -15.327 -27.199  1.00 25.81    -0.149 NA
HETATM    3  C3    D T 510     -19.346 -15.310 -29.201  1.00 28.92     0.186 A 
HETATM    4  N4    D T 510     -18.383 -14.839 -28.425  1.00 26.85    -0.129 NA
HETATM    5  C13   D T 510     -19.722 -16.088 -27.184  1.00 21.37     0.104 A 
HETATM    6  C14   D T 510     -20.229 -16.113 -28.445  1.00 21.42     0.055 A 
HETATM    7  C15   D T 510     -21.456 -16.953 -28.494  1.00 23.53     0.136 A 
HETATM    8  C16   D T 510     -20.512 -16.879 -26.208  1.00 21.29     0.152 A 
HETATM    9  C25   D T 510     -22.439 -18.379 -26.759  1.00 31.44     0.266 C 
HETATM   10  O26   D T 510     -22.508 -18.814 -25.621  1.00 37.82    -0.269 OA
ENDROOT
BRANCH   3  11
HETATM   11  N5    D T 510     -19.446 -15.019 -30.560  1.00 21.79    -0.187 NA
HETATM   12  C6    D T 510     -20.575 -14.935 -31.324  1.00 24.46     0.281 C 
HETATM   13  O8    D T 510     -21.693 -15.114 -30.877  1.00 47.57    -0.265 OA
BRANCH  12  14
HETATM   14  C7    D T 510     -20.415 -14.584 -32.756  1.00 27.20     0.058 A 
HETATM   15  C9    D T 510     -19.249 -13.955 -33.194  1.00 26.30     0.006 A 
HETATM   16  C10   D T 510     -19.071 -13.600 -34.519  1.00 29.02     0.017 A 
HETATM   17  C24   D T 510     -20.065 -13.856 -35.489  1.00 25.79     0.056 A 
HETATM   18  C11   D T 510     -21.239 -14.485 -35.031  1.00 33.12     0.017 A 
HETATM   19  C12   D T 510     -21.402 -14.830 -33.708  1.00 29.35     0.006 A 
BRANCH  17  20
HETATM   20  N17   D T 510     -19.925 -13.513 -36.813  1.00 32.10    -0.344 N 
HETATM   21  C18   D T 510     -21.086 -13.589 -37.694  1.00 33.06     0.137 C 
HETATM   22  C19   D T 510     -20.932 -12.663 -38.893  1.00 45.16     0.274 C 
HETATM   23  N20   D T 510     -19.686 -12.817 -39.613  1.00 53.73     0.143 N 
HETATM   24  C21   D T 510     -18.586 -12.635 -38.687  1.00 50.63     0.274 C 
HETATM   25  C23   D T 510     -19.597 -11.992 -40.801  1.00 47.36     0.286 C 
HETATM   26  C22   D T 510     -18.618 -13.538 -37.456  1.00 35.17     0.137 C 
ENDBRANCH  17  20
ENDBRANCH  12  14
ENDBRANCH   3  11
BRANCH   9  27
HETATM   27  C20   D T 510     -23.401 -18.882 -27.839  1.00 31.66     0.216 C 
BRANCH  27  28
HETATM   28  C27   D T 510     -22.700 -19.990 -28.603  1.00 37.14     0.014 A 
HETATM   29  C28   D T 510     -22.837 -20.113 -29.981  1.00 32.75    -0.001 A 
HETATM   30  C31   D T 510     -22.181 -21.128 -30.668  1.00 32.33    -0.000 A 
HETATM   31  C35   D T 510     -21.378 -22.024 -29.978  1.00 38.48    -0.000 A 
HETATM   32  C33   D T 510     -21.234 -21.905 -28.600  1.00 37.62    -0.000 A 
HETATM   33  C29   D T 510     -21.889 -20.893 -27.917  1.00 37.41    -0.001 A 
ENDBRANCH  27  28
BRANCH  27  34
HETATM   34  O34   D T 510     -24.549 -19.324 -27.177  1.00 47.15    -0.340 OA
HETATM   35  C36   D T 510     -25.694 -19.366 -27.999  1.00 30.29     0.175 C 
ENDBRANCH  27  34
ENDBRANCH   9  27
TORSDOF 6
