REMARK  7 active torsions:
REMARK  status: ('A' for Active; 'I' for Inactive)
REMARK    1  A    between atoms: C13_1  and  C25_22 
REMARK    2  A    between atoms: C17_3  and  C14_7 
REMARK    3  A    between atoms: C17_3  and  N18_34 
REMARK    4  A    between atoms: C11_5  and  N10_10 
REMARK       I    between atoms: N10_10  and  C08_18 
REMARK    5  A    between atoms: C03_13  and  C29_23 
REMARK    6  A    between atoms: C05_15  and  C08_18 
REMARK    7  A    between atoms: C30_24  and  C31_25 
ROOT
HETATM    1  N10   D T2601     143.421 130.602 137.587  1.00 11.81    -0.208 NA
HETATM    2  C08   D T2601     142.643 129.845 138.571  1.00  5.67     0.279 C 
HETATM    3  O09   D T2601     142.227 130.317 139.543  1.00  9.79    -0.265 OA
ENDROOT
BRANCH   2   4
HETATM    4  C05   D T2601     142.277 128.376 138.403  1.00  3.60     0.059 A 
HETATM    5  C04   D T2601     141.822 127.731 139.521  1.00  5.11     0.013 A 
HETATM    6  C03   D T2601     141.467 126.418 139.413  1.00  7.74     0.038 A 
HETATM    7  C02   D T2601     141.555 125.742 138.226  1.00  9.17    -0.014 A 
HETATM    8  C01   D T2601     141.156 124.285 138.160  1.00 11.30     0.032 C 
HETATM    9  C07   D T2601     142.005 126.395 137.107  1.00 16.89    -0.004 A 
HETATM   10  C06   D T2601     142.365 127.727 137.195  1.00 11.92     0.004 A 
BRANCH   6  11
HETATM   11  C29   D T2601     140.968 125.678 140.630  1.00  7.67    -0.060 C 
HETATM   12  C30   D T2601     140.577 125.089 141.569  1.00  4.53    -0.058 C 
BRANCH  12  13
HETATM   13  C31   D T2601     140.090 124.316 142.776  1.00  1.76     0.061 A 
HETATM   14  C32   D T2601     138.776 124.292 143.145  1.00  3.61     0.015 A 
HETATM   15  C33   D T2601     138.490 123.581 144.222  1.00  5.57     0.059 A 
HETATM   16  C34   D T2601     139.463 122.886 144.948  1.00  6.17     0.185 A 
HETATM   17  C37   D T2601     137.349 123.226 145.008  1.00  9.96     0.125 A 
HETATM   18  N35   D T2601     138.665 122.306 145.962  1.00  3.26    -0.129 NA
HETATM   19  N38   D T2601     140.729 122.895 144.623  1.00 12.99    -0.223 NA
HETATM   20  N36   D T2601     137.384 122.489 146.025  1.00  6.50    -0.145 NA
HETATM   21  C39   D T2601     141.067 123.615 143.518  1.00  5.57     0.109 A 
ENDBRANCH  12  13
ENDBRANCH   6  11
ENDBRANCH   2   4
BRANCH   1  22
HETATM   22  C11   D T2601     143.751 132.039 137.774  1.00 11.94     0.085 A 
HETATM   23  C12   D T2601     143.913 132.553 139.038  1.00  8.64     0.023 A 
HETATM   24  C13   D T2601     144.211 133.890 139.272  1.00  5.16     0.074 A 
HETATM   25  C14   D T2601     144.372 134.782 138.183  1.00  9.71     0.016 A 
HETATM   26  C15   D T2601     144.236 134.236 136.904  1.00  7.63     0.003 A 
HETATM   27  C16   D T2601     143.914 132.889 136.700  1.00  5.68     0.019 A 
BRANCH  24  28
HETATM   28  C25   D T2601     144.350 134.331 140.712  1.00  8.83     0.419 C 
HETATM   29  F26   D T2601     143.311 135.113 141.069  1.00 15.45    -0.166 F 
HETATM   30  F27   D T2601     144.358 133.247 141.501  1.00  6.64    -0.166 F 
HETATM   31  F28   D T2601     145.526 134.970 140.844  1.00 29.12    -0.166 F 
ENDBRANCH  24  28
BRANCH  25  32
HETATM   32  C17   D T2601     144.757 136.291 138.445  1.00 12.70     0.051 C 
BRANCH  32  33
HETATM   33  N18   D T2601     143.854 137.270 138.281  1.00 13.52    -0.228 NA
HETATM   34  C19   D T2601     144.188 138.023 137.274  1.00 14.71     0.099 C 
HETATM   35  C20   D T2601     143.188 139.143 136.948  1.00  4.84     0.095 C 
HETATM   36  N21   D T2601     141.986 138.637 136.839  1.00  2.05    -0.248 NA
HETATM   37  C22   D T2601     141.757 138.104 137.990  1.00  7.08     0.060 C 
HETATM   38  C24   D T2601     141.114 139.575 136.640  1.00  7.31     0.094 C 
HETATM   39  C23   D T2601     142.640 136.888 138.173  1.00 11.65     0.063 C 
ENDBRANCH  32  33
ENDBRANCH  25  32
ENDBRANCH   1  22
TORSDOF 7
