REMARK  7 active torsions:
REMARK  status: ('A' for Active; 'I' for Inactive)
REMARK    1  A    between atoms: C13_1  and  C25_22 
REMARK    2  A    between atoms: C17_3  and  C14_7 
REMARK    3  A    between atoms: C17_3  and  N18_34 
REMARK    4  A    between atoms: C11_5  and  N10_10 
REMARK       I    between atoms: N10_10  and  C08_18 
REMARK    5  A    between atoms: C03_13  and  C29_23 
REMARK    6  A    between atoms: C05_15  and  C08_18 
REMARK    7  A    between atoms: C30_24  and  C31_25 
ROOT
HETATM    1  N10   D T2601     141.758 131.006 139.188  1.00  8.06    -0.208 NA
HETATM    2  C08   D T2601     140.651 130.495 140.002  1.00  2.47     0.279 C 
HETATM    3  O09   D T2601     140.077 131.205 140.747  1.00 18.20    -0.265 OA
ENDROOT
BRANCH   2   4
HETATM    4  C05   D T2601     140.190 129.025 139.899  1.00 10.54     0.059 A 
HETATM    5  C04   D T2601     139.685 128.408 141.030  1.00 11.07     0.013 A 
HETATM    6  C03   D T2601     139.255 127.099 140.964  1.00  8.29     0.038 A 
HETATM    7  C02   D T2601     139.313 126.398 139.771  1.00  6.21    -0.014 A 
HETATM    8  C01   D T2601     138.838 124.955 139.712  1.00 12.09     0.032 C 
HETATM    9  C07   D T2601     139.814 127.015 138.636  1.00 18.64    -0.004 A 
HETATM   10  C06   D T2601     140.250 128.334 138.698  1.00 27.97     0.004 A 
BRANCH   6  11
HETATM   11  C29   D T2601     138.714 126.458 142.242  1.00 10.14    -0.060 C 
HETATM   12  C30   D T2601     138.294 125.976 143.245  1.00 12.27    -0.058 C 
BRANCH  12  13
HETATM   13  C31   D T2601     137.752 125.368 144.545  1.00 14.65     0.061 A 
HETATM   14  C32   D T2601     136.392 125.291 144.776  1.00 20.27     0.015 A 
HETATM   15  C33   D T2601     135.995 124.753 145.925  1.00 16.21     0.059 A 
HETATM   16  C34   D T2601     136.921 124.268 146.893  1.00 17.93     0.185 A 
HETATM   17  C37   D T2601     134.753 124.461 146.594  1.00 19.98     0.125 A 
HETATM   18  N35   D T2601     136.010 123.811 147.889  1.00 17.12    -0.129 NA
HETATM   19  N38   D T2601     138.236 124.320 146.720  1.00 17.86    -0.223 NA
HETATM   20  N36   D T2601     134.712 123.913 147.738  1.00 18.25    -0.145 NA
HETATM   21  C39   D T2601     138.666 124.877 145.530  1.00 12.87     0.109 A 
ENDBRANCH  12  13
ENDBRANCH   6  11
ENDBRANCH   2   4
BRANCH   1  22
HETATM   22  C11   D T2601     142.171 132.432 139.291  1.00 14.61     0.085 A 
HETATM   23  C12   D T2601     142.331 133.059 140.524  1.00 15.90     0.023 A 
HETATM   24  C13   D T2601     142.713 134.414 140.631  1.00  0.00     0.071 A 
HETATM   25  C14   D T2601     142.953 135.161 139.437  1.00 15.61     0.015 A 
HETATM   26  C15   D T2601     142.787 134.507 138.216  1.00 19.64    -0.001 A 
HETATM   27  C16   D T2601     142.400 133.162 138.136  1.00 12.94     0.019 A 
BRANCH  24  28
HETATM   28  C25   D T2601     142.867 135.027 142.026  1.00 12.85     0.419 C 
HETATM   29  F26   D T2601     142.060 136.116 142.152  1.00 14.34    -0.166 F 
HETATM   30  F27   D T2601     142.500 134.104 142.956  1.00 19.86    -0.166 F 
HETATM   31  F28   D T2601     144.169 135.386 142.223  1.00 33.27    -0.166 F 
ENDBRANCH  24  28
BRANCH  25  32
HETATM   32  C17   D T2601     143.389 136.675 139.468  1.00 22.96     0.277 C 
BRANCH  32  33
HETATM   33  N18   D T2601     142.566 137.419 138.724  1.00 28.73     0.146 N 
HETATM   34  C19   D T2601     143.171 138.534 138.380  1.00 11.84     0.286 C 
HETATM   35  C20   D T2601     142.248 139.714 138.024  1.00 15.66     0.286 C 
HETATM   36  N21   D T2601     141.039 139.264 137.742  1.00  6.09     0.143 N 
HETATM   37  C22   D T2601     140.540 138.714 138.825  1.00  9.54     0.286 C 
HETATM   38  C24   D T2601     140.280 140.252 137.371  1.00  8.86     0.285 C 
HETATM   39  C23   D T2601     141.410 137.553 139.315  1.00 19.33     0.286 C 
ENDBRANCH  32  33
ENDBRANCH  25  32
ENDBRANCH   1  22
TORSDOF 7
