REMARK  7 active torsions:
REMARK  status: ('A' for Active; 'I' for Inactive)
REMARK    1  A    between atoms: C13_1  and  C25_22 
REMARK    2  A    between atoms: C17_3  and  C14_7 
REMARK    3  A    between atoms: C17_3  and  N18_34 
REMARK    4  A    between atoms: C11_5  and  N10_10 
REMARK       I    between atoms: N10_10  and  C08_18 
REMARK    5  A    between atoms: C03_13  and  C29_23 
REMARK    6  A    between atoms: C05_15  and  C08_18 
REMARK    7  A    between atoms: C30_24  and  C31_25 
ROOT
HETATM    1  N10   D T2601     234.501 179.292 204.952  1.00 54.54    -0.208 NA
HETATM    2  C08   D T2601     234.918 178.409 206.046  1.00 52.16     0.279 C 
HETATM    3  O09   D T2601     234.677 177.253 206.019  1.00 52.08    -0.265 OA
ENDROOT
BRANCH   2   4
HETATM    4  C05   D T2601     235.699 178.977 207.253  1.00 55.16     0.059 A 
HETATM    5  C04   D T2601     235.892 178.169 208.363  1.00 57.21     0.013 A 
HETATM    6  C03   D T2601     236.587 178.651 209.454  1.00 54.59     0.038 A 
HETATM    7  C02   D T2601     237.094 179.942 209.445  1.00 41.46    -0.014 A 
HETATM    8  C01   D T2601     237.857 180.465 210.654  1.00 47.17     0.032 C 
HETATM    9  C07   D T2601     236.905 180.752 208.335  1.00 46.83    -0.004 A 
HETATM   10  C06   D T2601     236.206 180.269 207.235  1.00 54.40     0.004 A 
BRANCH   6  11
HETATM   11  C29   D T2601     236.787 177.738 210.670  1.00 62.01    -0.060 C 
HETATM   12  C30   D T2601     236.934 177.017 211.611  1.00 59.38    -0.058 C 
BRANCH  12  13
HETATM   13  C31   D T2601     237.110 176.091 212.825  1.00 50.79     0.061 A 
HETATM   14  C32   D T2601     238.179 175.216 212.900  1.00 52.21     0.015 A 
HETATM   15  C33   D T2601     238.269 174.445 213.980  1.00 50.05     0.059 A 
HETATM   16  C34   D T2601     237.310 174.500 215.037  1.00 52.57     0.185 A 
HETATM   17  C37   D T2601     239.154 173.428 214.492  1.00 58.30     0.125 A 
HETATM   18  N35   D T2601     237.854 173.512 215.909  1.00 56.79    -0.129 NA
HETATM   19  N38   D T2601     236.263 175.320 215.020  1.00 60.89    -0.223 NA
HETATM   20  N36   D T2601     238.952 172.859 215.611  1.00 62.69    -0.145 NA
HETATM   21  C39   D T2601     236.156 176.129 213.900  1.00 53.90     0.109 A 
ENDBRANCH  12  13
ENDBRANCH   6  11
ENDBRANCH   2   4
BRANCH   1  22
HETATM   22  C11   D T2601     233.757 178.767 203.774  1.00 54.10     0.085 A 
HETATM   23  C12   D T2601     232.711 177.860 203.925  1.00 44.78     0.023 A 
HETATM   24  C13   D T2601     231.999 177.347 202.819  1.00 45.32     0.071 A 
HETATM   25  C14   D T2601     232.359 177.788 201.508  1.00 49.02     0.015 A 
HETATM   26  C15   D T2601     233.409 178.699 201.385  1.00 60.33    -0.001 A 
HETATM   27  C16   D T2601     234.104 179.187 202.500  1.00 55.57     0.019 A 
BRANCH  24  28
HETATM   28  C25   D T2601     230.858 176.352 203.073  1.00 59.37     0.419 C 
HETATM   29  F26   D T2601     231.048 175.204 202.364  1.00 68.99    -0.166 F 
HETATM   30  F27   D T2601     230.822 176.054 204.401  1.00 54.12    -0.166 F 
HETATM   31  F28   D T2601     229.671 176.920 202.712  1.00 77.73    -0.166 F 
ENDBRANCH  24  28
BRANCH  25  32
HETATM   32  C17   D T2601     231.623 177.282 200.214  1.00 46.42     0.277 C 
BRANCH  32  33
HETATM   33  N18   D T2601     232.517 177.203 199.226  1.00 63.20     0.146 N 
HETATM   34  C19   D T2601     231.998 177.638 198.102  1.00 56.59     0.286 C 
HETATM   35  C20   D T2601     232.797 177.262 196.840  1.00 57.91     0.286 C 
HETATM   36  N21   D T2601     233.995 176.809 197.171  1.00 61.09     0.143 N 
HETATM   37  C22   D T2601     233.856 175.728 197.910  1.00 58.33     0.286 C 
HETATM   38  C24   D T2601     234.663 176.515 196.092  1.00 58.82     0.285 C 
HETATM   39  C23   D T2601     233.031 176.008 199.169  1.00 60.02     0.286 C 
ENDBRANCH  32  33
ENDBRANCH  25  32
ENDBRANCH   1  22
TORSDOF 7
