REMARK  7 active torsions:
REMARK  status: ('A' for Active; 'I' for Inactive)
REMARK    1  A    between atoms: C13_1  and  C25_21 
REMARK    2  A    between atoms: C17_3  and  C14_7 
REMARK    3  A    between atoms: C17_3  and  N18_33 
REMARK    4  A    between atoms: C11_5  and  N10_10 
REMARK       I    between atoms: N10_10  and  C08_17 
REMARK    5  A    between atoms: C03_12  and  C29_22 
REMARK    6  A    between atoms: C05_14  and  C08_17 
REMARK    7  A    between atoms: C30_23  and  C31_24 
ROOT
HETATM    1  N10   D T2602     179.673 168.621 154.546  1.00 94.57    -0.208 NA
HETATM    2  C08   D T2602     179.620 167.227 154.982  1.00 96.06     0.279 C 
HETATM    3  O09   D T2602     178.615 166.777 155.401  1.00 99.47    -0.265 OA
ENDROOT
BRANCH   1   4
HETATM    4  C11   D T2602     178.461 169.474 154.635  1.00 98.39     0.085 A 
HETATM    5  C12   D T2602     177.812 169.629 155.854  1.00102.66     0.023 A 
HETATM    6  C13   D T2602     176.660 170.431 155.990  1.00102.89     0.071 A 
HETATM    7  C14   D T2602     176.149 171.104 154.842  1.00103.19     0.015 A 
HETATM    8  C15   D T2602     176.820 170.937 153.629  1.00105.74    -0.001 A 
HETATM    9  C16   D T2602     177.964 170.131 153.520  1.00102.06     0.019 A 
BRANCH   6  10
HETATM   10  C25   D T2602     175.993 170.550 157.365  1.00102.82     0.419 C 
HETATM   11  F26   D T2602     176.743 169.869 158.273  1.00107.06    -0.166 F 
HETATM   12  F27   D T2602     175.929 171.855 157.744  1.00102.60    -0.166 F 
HETATM   13  F28   D T2602     174.742 170.010 157.328  1.00103.37    -0.166 F 
ENDBRANCH   6  10
BRANCH   7  14
HETATM   14  C17   D T2602     174.871 172.014 154.932  1.00100.67     0.277 C 
BRANCH  14  15
HETATM   15  N18   D T2602     174.156 171.927 153.813  1.00104.04     0.146 N 
HETATM   16  C19   D T2602     173.627 173.103 153.569  1.00107.77     0.286 C 
HETATM   17  C20   D T2602     172.288 173.090 152.815  1.00107.78     0.286 C 
HETATM   18  N21   D T2602     172.199 171.979 152.113  1.00106.92     0.143 N 
HETATM   19  C22   D T2602     172.115 170.972 152.953  1.00103.68     0.286 C 
HETATM   20  C24   D T2602     171.135 172.033 151.367  1.00105.81     0.285 C 
HETATM   21  C23   D T2602     173.318 170.932 153.900  1.00104.89     0.286 C 
ENDBRANCH  14  15
ENDBRANCH   7  14
ENDBRANCH   1   4
BRANCH   2  22
HETATM   22  C05   D T2602     180.880 166.335 154.904  1.00 96.97     0.059 A 
HETATM   23  C04   D T2602     181.038 165.308 155.822  1.00 99.17     0.013 A 
HETATM   24  C03   D T2602     182.158 164.503 155.770  1.00 96.89     0.042 A 
HETATM   25  C02   D T2602     183.128 164.726 154.805  1.00 99.79     0.008 A 
HETATM   26  C07   D T2602     182.970 165.754 153.891  1.00100.07     0.001 A 
HETATM   27  C06   D T2602     181.845 166.563 153.939  1.00100.96     0.005 A 
BRANCH  24  28
HETATM   28  C29   D T2602     182.334 163.362 156.781  1.00 99.16    -0.059 C 
HETATM   29  C30   D T2602     182.485 162.474 157.566  1.00101.30    -0.058 C 
BRANCH  29  30
HETATM   30  C31   D T2602     182.693 161.341 158.585  1.00 99.24     0.061 A 
HETATM   31  C32   D T2602     182.283 160.049 158.324  1.00 99.88     0.015 A 
HETATM   32  C33   D T2602     182.498 159.131 159.259  1.00 95.59     0.059 A 
HETATM   33  C34   D T2602     183.133 159.440 160.493  1.00 97.44     0.185 A 
HETATM   34  C37   D T2602     182.264 157.723 159.445  1.00101.07     0.125 A 
HETATM   35  N35   D T2602     183.120 158.153 161.104  1.00 99.25    -0.129 NA
HETATM   36  N38   D T2602     183.552 160.660 160.799  1.00 99.75    -0.223 NA
HETATM   37  N36   D T2602     182.608 157.109 160.504  1.00101.72    -0.145 NA
HETATM   38  C39   D T2602     183.332 161.627 159.835  1.00 98.74     0.109 A 
ENDBRANCH  29  30
ENDBRANCH  24  28
ENDBRANCH   2  22
TORSDOF 7
