REMARK  7 active torsions:
REMARK  status: ('A' for Active; 'I' for Inactive)
REMARK    1  A    between atoms: C13_1  and  C25_22 
REMARK    2  A    between atoms: C17_3  and  C14_7 
REMARK    3  A    between atoms: C17_3  and  N18_34 
REMARK    4  A    between atoms: C11_5  and  N10_10 
REMARK       I    between atoms: N10_10  and  C08_18 
REMARK    5  A    between atoms: C03_13  and  C29_23 
REMARK    6  A    between atoms: C05_15  and  C08_18 
REMARK    7  A    between atoms: C30_24  and  C31_25 
ROOT
HETATM    1  N10   D T2602     284.258 240.092 272.110  1.00 89.48    -0.208 NA
HETATM    2  C08   D T2602     285.213 239.557 271.180  1.00 89.48     0.279 C 
HETATM    3  O09   D T2602     286.144 240.204 270.819  1.00 89.48    -0.265 OA
ENDROOT
BRANCH   2   4
HETATM    4  C05   D T2602     285.046 238.120 270.615  1.00 89.48     0.059 A 
HETATM    5  C04   D T2602     285.776 237.766 269.482  1.00 89.48     0.013 A 
HETATM    6  C03   D T2602     285.651 236.487 268.946  1.00 89.48     0.038 A 
HETATM    7  C02   D T2602     284.799 235.558 269.537  1.00 89.48    -0.014 A 
HETATM    8  C01   D T2602     284.678 234.138 268.918  1.00 89.48     0.032 C 
HETATM    9  C07   D T2602     284.070 235.909 270.668  1.00 89.48    -0.004 A 
HETATM   10  C06   D T2602     284.198 237.202 271.214  1.00 89.48     0.004 A 
BRANCH   6  11
HETATM   11  C29   D T2602     286.469 236.115 267.693  1.00 89.48    -0.060 C 
HETATM   12  C30   D T2602     287.119 235.859 266.719  1.00 89.48    -0.058 C 
BRANCH  12  13
HETATM   13  C31   D T2602     287.962 235.535 265.470  1.00 89.48     0.061 A 
HETATM   14  C32   D T2602     289.197 234.874 265.598  1.00 89.48     0.015 A 
HETATM   15  C33   D T2602     289.926 234.604 264.408  1.00 89.48     0.059 A 
HETATM   16  C34   D T2602     289.403 234.989 263.203  1.00 89.48     0.185 A 
HETATM   17  C37   D T2602     291.180 233.972 264.110  1.00 89.48     0.125 A 
HETATM   18  N35   D T2602     290.291 234.613 262.236  1.00 89.48    -0.129 NA
HETATM   19  N38   D T2602     288.204 235.625 263.122  1.00 89.48    -0.223 NA
HETATM   20  N36   D T2602     291.357 234.003 262.796  1.00 89.48    -0.145 NA
HETATM   21  C39   D T2602     287.490 235.898 264.203  1.00 89.48     0.109 A 
ENDBRANCH  12  13
ENDBRANCH   6  11
ENDBRANCH   2   4
BRANCH   1  22
HETATM   22  C11   D T2602     284.411 241.455 272.648  1.00 89.48     0.085 A 
HETATM   23  C12   D T2602     284.456 242.549 271.787  1.00 89.48     0.023 A 
HETATM   24  C13   D T2602     284.601 243.840 272.284  1.00 89.48     0.070 A 
HETATM   25  C14   D T2602     284.696 244.046 273.675  1.00 89.48    -0.002 A 
HETATM   26  C15   D T2602     284.643 242.949 274.533  1.00 89.48    -0.001 A 
HETATM   27  C16   D T2602     284.502 241.653 274.028  1.00 89.48     0.019 A 
BRANCH  24  28
HETATM   28  C25   D T2602     284.652 244.974 271.264  1.00 89.48     0.419 C 
HETATM   29  F26   D T2602     285.846 245.615 271.328  1.00 89.48    -0.166 F 
HETATM   30  F27   D T2602     284.517 244.430 270.017  1.00 89.48    -0.166 F 
HETATM   31  F28   D T2602     283.636 245.849 271.459  1.00 89.48    -0.166 F 
ENDBRANCH  24  28
BRANCH  25  32
HETATM   32  C17   D T2602     284.854 245.472 274.290  1.00 89.48     0.103 C 
BRANCH  32  33
HETATM   33  N18   D T2602     285.204 245.400 275.506  1.00 89.48    -0.245 NA
HETATM   34  C19   D T2602     284.398 246.235 276.250  1.00 89.48     0.060 C 
HETATM   35  C20   D T2602     284.867 246.355 277.700  1.00 89.48     0.059 C 
HETATM   36  N21   D T2602     286.207 246.675 277.783  1.00 89.48    -0.248 NA
HETATM   37  C22   D T2602     287.004 245.826 277.059  1.00 89.48     0.094 C 
HETATM   38  C24   D T2602     286.572 246.674 278.996  1.00 89.48     0.094 C 
HETATM   39  C23   D T2602     286.538 245.731 275.603  1.00 89.48     0.095 C 
ENDBRANCH  32  33
ENDBRANCH  25  32
ENDBRANCH   1  22
TORSDOF 7
