REMARK  5 active torsions:
REMARK  status: ('A' for Active; 'I' for Inactive)
REMARK    1  A    between atoms: O2_2  and  C3_3 
REMARK    2  A    between atoms: C5_5  and  N6_6 
REMARK    3  A    between atoms: N6_6  and  S7_7 
REMARK    4  A    between atoms: C13_13  and  N14_14 
REMARK    5  A    between atoms: N14_14  and  C15_15 
ROOT
HETATM    1  C15   D T1202     122.772 136.544 139.889  1.00133.69     0.084 A 
HETATM    2  C16   D T1202     124.017 137.048 140.386  1.00133.57     0.035 A 
HETATM    3  C17   D T1202     124.196 138.426 140.662  1.00134.96     0.003 A 
HETATM    4  C18   D T1202     125.417 138.886 141.150  1.00135.95     0.000 A 
HETATM    5  C19   D T1202     126.465 137.986 141.363  1.00140.33     0.002 A 
HETATM    6  C20   D T1202     126.287 136.637 141.096  1.00142.57     0.019 A 
HETATM    7  C21   D T1202     125.039 136.170 140.597  1.00137.04     0.083 A 
HETATM    8  N22   D T1202     124.913 134.841 140.347  1.00136.35    -0.245 NA
HETATM    9  C23   D T1202     123.744 134.329 139.871  1.00136.64     0.083 A 
HETATM   10  C24   D T1202     123.686 132.926 139.632  1.00140.64     0.019 A 
HETATM   11  C25   D T1202     122.522 132.346 139.146  1.00138.49     0.002 A 
HETATM   12  C26   D T1202     121.406 133.149 138.892  1.00134.13     0.000 A 
HETATM   13  C27   D T1202     121.469 134.520 139.125  1.00132.54     0.003 A 
HETATM   14  C28   D T1202     122.656 135.129 139.625  1.00134.07     0.035 A 
ENDROOT
BRANCH   1  15
HETATM   15  N14   D T1202     121.732 137.550 139.687  1.00133.37    -0.243 NA
BRANCH  15  16
HETATM   16  C13   D T1202     120.326 137.319 139.439  1.00139.52     0.104 A 
HETATM   17  C3    D T1202     119.813 137.606 138.189  1.00145.68     0.113 A 
HETATM   18  C4    D T1202     118.472 137.397 137.928  1.00146.28     0.046 A 
HETATM   19  C5    D T1202     117.638 136.902 138.918  1.00143.67     0.096 A 
HETATM   20  C11   D T1202     118.156 136.613 140.171  1.00141.96     0.022 A 
HETATM   21  C12   D T1202     119.496 136.827 140.436  1.00143.27     0.023 A 
BRANCH  17  22
HETATM   22  O2    D T1202     120.663 138.105 137.197  1.00148.39    -0.327 OA
HETATM   23  C1    D T1202     120.008 138.652 136.091  1.00144.79     0.181 C 
ENDBRANCH  17  22
BRANCH  19  24
HETATM   24  N6    D T1202     116.235 136.697 138.608  1.00145.73    -0.162 NA
BRANCH  24  25
HETATM   25  S7    D T1202     115.122 135.992 139.701  1.00154.23     0.266 S 
HETATM   26  C8    D T1202     113.456 136.566 139.273  1.00146.68     0.165 C 
HETATM   27  O9    D T1202     115.437 136.442 141.258  1.00143.37    -0.203 OA
HETATM   28  O10   D T1202     115.191 134.355 139.563  1.00144.20    -0.203 OA
ENDBRANCH  24  25
ENDBRANCH  19  24
ENDBRANCH  15  16
ENDBRANCH   1  15
TORSDOF 5
