MODEL 1
REMARK VINA RESULT:    -7.081      0.000      0.000
REMARK INTER + INTRA:          -9.061
REMARK INTER:                  -9.151
REMARK INTRA:                   0.090
REMARK UNBOUND:                 0.090
REMARK  5 active torsions:
REMARK  status: ('A' for Active; 'I' for Inactive)
REMARK    1  A    between atoms: C1_1  and  C21_25 
REMARK    2  A    between atoms: N1_14  and  C13_15 
REMARK    3  A    between atoms: C13_15  and  C14_16 
REMARK    4  A    between atoms: C14_16  and  C15_17 
REMARK    5  A    between atoms: C15_17  and  N2_18 
ROOT
HETATM    1  C1    D T 153     -10.479  -0.886  22.474  1.00 26.21     0.073 A 
HETATM    2  C2    D T 153     -10.680   0.102  23.429  1.00 21.83     0.004 A 
HETATM    3  C3    D T 153     -11.938   0.288  23.954  1.00 19.56     0.008 A 
HETATM    4  C4    D T 153     -12.998  -0.506  23.551  1.00 21.19     0.045 A 
HETATM    5  C5    D T 153     -12.789  -1.562  22.667  1.00 23.95     0.066 A 
HETATM    6  C6    D T 153     -11.523  -1.715  22.079  1.00 23.48     0.022 A 
HETATM    7  S     D T 153     -14.616  -0.119  24.170  1.00 23.13    -0.084 SA
HETATM    8  C7    D T 153     -15.657  -0.646  22.888  1.00 22.23     0.045 A 
HETATM    9  C8    D T 153     -16.920  -0.053  22.795  1.00 19.63     0.008 A 
HETATM   10  C9    D T 153     -17.820  -0.446  21.833  1.00 14.46     0.001 A 
HETATM   11  C10   D T 153     -17.470  -1.453  20.982  1.00 16.71     0.002 A 
HETATM   12  C11   D T 153     -16.204  -2.041  21.074  1.00 22.55     0.018 A 
HETATM   13  C12   D T 153     -15.224  -1.623  21.994  1.00 24.03     0.066 A 
HETATM   14  N1    D T 153     -13.907  -2.319  22.178  1.00 27.67    -0.327 N 
ENDROOT
BRANCH  14  15
HETATM   15  C13   D T 153     -13.534  -3.390  21.255  1.00 25.39     0.108 C 
BRANCH  15  16
HETATM   16  C14   D T 153     -14.076  -3.151  19.838  1.00 23.98     0.049 C 
BRANCH  16  17
HETATM   17  C15   D T 153     -13.040  -2.507  18.911  1.00 23.67     0.108 C 
BRANCH  17  18
HETATM   18  N2    D T 153     -12.936  -3.113  17.614  1.00 22.79    -0.323 N 
HETATM   19  C16   D T 153     -12.171  -2.454  16.617  1.00 24.85     0.095 A 
HETATM   20  C17   D T 153     -12.038  -3.008  15.301  1.00 24.41     0.095 A 
HETATM   21  N3    D T 153     -12.684  -4.238  14.975  1.00 24.18    -0.321 N 
HETATM   22  C18   D T 153     -13.465  -4.907  15.959  1.00 23.65     0.095 A 
HETATM   23  C20   D T 153     -12.534  -4.780  13.670  1.00 22.39     0.131 C 
HETATM   24  C19   D T 153     -13.589  -4.341  17.281  1.00 24.93     0.095 A 
ENDBRANCH  17  18
ENDBRANCH  16  17
ENDBRANCH  15  16
ENDBRANCH  14  15
BRANCH   1  25
HETATM   25  C21   D T 153      -9.179  -0.988  21.818  1.00 26.87     0.419 C 
HETATM   26  F1    D T 153      -9.228  -0.900  20.515  1.00 26.36    -0.166 F 
HETATM   27  F2    D T 153      -8.570  -2.096  22.113  1.00 25.74    -0.166 F 
HETATM   28  F3    D T 153      -8.275  -0.111  22.108  1.00 29.44    -0.166 F 
ENDBRANCH   1  25
TORSDOF 5
ENDMDL
MODEL 2
REMARK VINA RESULT:    -6.794      3.761      8.016
REMARK INTER + INTRA:          -8.690
REMARK INTER:                  -7.955
REMARK INTRA:                  -0.735
REMARK UNBOUND:                 0.090
REMARK  5 active torsions:
REMARK  status: ('A' for Active; 'I' for Inactive)
REMARK    1  A    between atoms: C1_1  and  C21_25 
REMARK    2  A    between atoms: N1_14  and  C13_15 
REMARK    3  A    between atoms: C13_15  and  C14_16 
REMARK    4  A    between atoms: C14_16  and  C15_17 
REMARK    5  A    between atoms: C15_17  and  N2_18 
ROOT
HETATM    1  C1    D T 153     -10.948  -1.066  21.615  1.00 26.21     0.073 A 
HETATM    2  C2    D T 153     -11.411  -1.400  20.350  1.00 21.83     0.004 A 
HETATM    3  C3    D T 153     -12.758  -1.605  20.155  1.00 19.56     0.008 A 
HETATM    4  C4    D T 153     -13.653  -1.468  21.201  1.00 21.19     0.045 A 
HETATM    5  C5    D T 153     -13.214  -1.039  22.452  1.00 23.95     0.066 A 
HETATM    6  C6    D T 153     -11.835  -0.893  22.673  1.00 23.48     0.022 A 
HETATM    7  S     D T 153     -15.355  -1.879  20.906  1.00 23.13    -0.084 SA
HETATM    8  C7    D T 153     -15.897  -2.422  22.461  1.00 22.23     0.045 A 
HETATM    9  C8    D T 153     -16.997  -3.284  22.498  1.00 19.63     0.008 A 
HETATM   10  C9    D T 153     -17.515  -3.725  23.693  1.00 14.46     0.001 A 
HETATM   11  C10   D T 153     -16.951  -3.280  24.853  1.00 16.71     0.002 A 
HETATM   12  C11   D T 153     -15.849  -2.422  24.813  1.00 22.55     0.018 A 
HETATM   13  C12   D T 153     -15.239  -2.001  23.615  1.00 24.03     0.066 A 
HETATM   14  N1    D T 153     -14.130  -0.993  23.556  1.00 27.67    -0.327 N 
ENDROOT
BRANCH  14  15
HETATM   15  C13   D T 153     -13.524  -0.529  24.804  1.00 25.39     0.108 C 
BRANCH  15  16
HETATM   16  C14   D T 153     -13.985   0.885  25.183  1.00 23.98     0.049 C 
BRANCH  16  17
HETATM   17  C15   D T 153     -14.586   0.953  26.591  1.00 23.67     0.108 C 
BRANCH  17  18
HETATM   18  N2    D T 153     -13.865   1.787  27.511  1.00 22.79    -0.323 N 
HETATM   19  C16   D T 153     -13.163   1.170  28.578  1.00 24.85     0.095 A 
HETATM   20  C17   D T 153     -12.432   1.951  29.533  1.00 24.41     0.095 A 
HETATM   21  N3    D T 153     -12.408   3.373  29.421  1.00 24.18    -0.321 N 
HETATM   22  C18   D T 153     -13.116   4.011  28.364  1.00 23.65     0.095 A 
HETATM   23  C20   D T 153     -11.670   4.135  30.368  1.00 22.39     0.131 C 
HETATM   24  C19   D T 153     -13.845   3.213  27.408  1.00 24.93     0.095 A 
ENDBRANCH  17  18
ENDBRANCH  16  17
ENDBRANCH  15  16
ENDBRANCH  14  15
BRANCH   1  25
HETATM   25  C21   D T 153      -9.510  -0.988  21.850  1.00 26.87     0.419 C 
HETATM   26  F1    D T 153      -8.974  -2.103  22.271  1.00 26.36    -0.166 F 
HETATM   27  F2    D T 153      -9.206  -0.060  22.706  1.00 25.74    -0.166 F 
HETATM   28  F3    D T 153      -8.741  -0.685  20.855  1.00 29.44    -0.166 F 
ENDBRANCH   1  25
TORSDOF 5
ENDMDL
MODEL 3
REMARK VINA RESULT:    -6.766      3.599      7.448
REMARK INTER + INTRA:          -8.654
REMARK INTER:                  -7.825
REMARK INTRA:                  -0.828
REMARK UNBOUND:                 0.090
REMARK  5 active torsions:
REMARK  status: ('A' for Active; 'I' for Inactive)
REMARK    1  A    between atoms: C1_1  and  C21_25 
REMARK    2  A    between atoms: N1_14  and  C13_15 
REMARK    3  A    between atoms: C13_15  and  C14_16 
REMARK    4  A    between atoms: C14_16  and  C15_17 
REMARK    5  A    between atoms: C15_17  and  N2_18 
ROOT
HETATM    1  C1    D T 153     -11.685  -1.154  21.914  1.00 26.21     0.073 A 
HETATM    2  C2    D T 153     -12.152  -1.389  20.628  1.00 21.83     0.004 A 
HETATM    3  C3    D T 153     -13.489  -1.650  20.432  1.00 19.56     0.008 A 
HETATM    4  C4    D T 153     -14.371  -1.667  21.498  1.00 21.19     0.045 A 
HETATM    5  C5    D T 153     -13.932  -1.338  22.779  1.00 23.95     0.066 A 
HETATM    6  C6    D T 153     -12.560  -1.135  22.995  1.00 23.48     0.022 A 
HETATM    7  S     D T 153     -16.052  -2.145  21.186  1.00 23.13    -0.084 SA
HETATM    8  C7    D T 153     -16.534  -2.866  22.688  1.00 22.23     0.045 A 
HETATM    9  C8    D T 153     -17.584  -3.789  22.654  1.00 19.63     0.008 A 
HETATM   10  C9    D T 153     -18.053  -4.373  23.807  1.00 14.46     0.001 A 
HETATM   11  C10   D T 153     -17.494  -4.012  24.997  1.00 16.71     0.002 A 
HETATM   12  C11   D T 153     -16.442  -3.092  25.027  1.00 22.55     0.018 A 
HETATM   13  C12   D T 153     -15.879  -2.523  23.869  1.00 24.03     0.066 A 
HETATM   14  N1    D T 153     -14.829  -1.452  23.895  1.00 27.67    -0.327 N 
ENDROOT
BRANCH  14  15
HETATM   15  C13   D T 153     -14.226  -1.078  25.173  1.00 25.39     0.108 C 
BRANCH  15  16
HETATM   16  C14   D T 153     -14.546   0.372  25.565  1.00 23.98     0.049 C 
BRANCH  16  17
HETATM   17  C15   D T 153     -13.287   1.224  25.752  1.00 23.67     0.108 C 
BRANCH  17  18
HETATM   18  N2    D T 153     -12.444   0.819  26.841  1.00 22.79    -0.323 N 
HETATM   19  C16   D T 153     -12.803   1.210  28.157  1.00 24.85     0.095 A 
HETATM   20  C17   D T 153     -11.996   0.842  29.284  1.00 24.41     0.095 A 
HETATM   21  N3    D T 153     -10.809   0.073  29.091  1.00 24.18    -0.321 N 
HETATM   22  C18   D T 153     -10.428  -0.319  27.777  1.00 23.65     0.095 A 
HETATM   23  C20   D T 153     -10.026  -0.294  30.219  1.00 22.39     0.131 C 
HETATM   24  C19   D T 153     -11.250   0.056  26.652  1.00 24.93     0.095 A 
ENDBRANCH  17  18
ENDBRANCH  16  17
ENDBRANCH  15  16
ENDBRANCH  14  15
BRANCH   1  25
HETATM   25  C21   D T 153     -10.249  -1.018  22.135  1.00 26.87     0.419 C 
HETATM   26  F1    D T 153      -9.661  -2.115  22.532  1.00 26.36    -0.166 F 
HETATM   27  F2    D T 153      -9.977  -0.091  23.004  1.00 25.74    -0.166 F 
HETATM   28  F3    D T 153      -9.505  -0.665  21.139  1.00 29.44    -0.166 F 
ENDBRANCH   1  25
TORSDOF 5
ENDMDL
MODEL 4
REMARK VINA RESULT:    -6.716      3.687      7.465
REMARK INTER + INTRA:          -8.590
REMARK INTER:                  -8.390
REMARK INTRA:                  -0.200
REMARK UNBOUND:                 0.090
REMARK  5 active torsions:
REMARK  status: ('A' for Active; 'I' for Inactive)
REMARK    1  A    between atoms: C1_1  and  C21_25 
REMARK    2  A    between atoms: N1_14  and  C13_15 
REMARK    3  A    between atoms: C13_15  and  C14_16 
REMARK    4  A    between atoms: C14_16  and  C15_17 
REMARK    5  A    between atoms: C15_17  and  N2_18 
ROOT
HETATM    1  C1    D T 153     -10.142  -0.786  21.191  1.00 26.21     0.073 A 
HETATM    2  C2    D T 153     -10.739  -1.336  20.064  1.00 21.83     0.004 A 
HETATM    3  C3    D T 153     -12.098  -1.554  20.058  1.00 19.56     0.008 A 
HETATM    4  C4    D T 153     -12.874  -1.219  21.154  1.00 21.19     0.045 A 
HETATM    5  C5    D T 153     -12.302  -0.578  22.251  1.00 23.95     0.066 A 
HETATM    6  C6    D T 153     -10.908  -0.414  22.290  1.00 23.48     0.022 A 
HETATM    7  S     D T 153     -14.595  -1.654  21.125  1.00 23.13    -0.084 SA
HETATM    8  C7    D T 153     -14.959  -1.901  22.802  1.00 22.23     0.045 A 
HETATM    9  C8    D T 153     -16.043  -2.727  23.113  1.00 19.63     0.008 A 
HETATM   10  C9    D T 153     -16.424  -2.939  24.417  1.00 14.46     0.001 A 
HETATM   11  C10   D T 153     -15.740  -2.301  25.409  1.00 16.71     0.002 A 
HETATM   12  C11   D T 153     -14.653  -1.479  25.096  1.00 22.55     0.018 A 
HETATM   13  C12   D T 153     -14.182  -1.288  23.782  1.00 24.03     0.066 A 
HETATM   14  N1    D T 153     -13.092  -0.323  23.423  1.00 27.67    -0.327 N 
ENDROOT
BRANCH  14  15
HETATM   15  C13   D T 153     -12.356   0.349  24.492  1.00 25.39     0.108 C 
BRANCH  15  16
HETATM   16  C14   D T 153     -11.514  -0.630  25.323  1.00 23.98     0.049 C 
BRANCH  16  17
HETATM   17  C15   D T 153     -11.578  -0.336  26.825  1.00 23.67     0.108 C 
BRANCH  17  18
HETATM   18  N2    D T 153     -10.638  -1.073  27.622  1.00 22.79    -0.323 N 
HETATM   19  C16   D T 153     -10.763  -2.485  27.686  1.00 24.85     0.095 A 
HETATM   20  C17   D T 153      -9.859  -3.273  28.471  1.00 24.41     0.095 A 
HETATM   21  N3    D T 153      -8.815  -2.639  29.208  1.00 24.18    -0.321 N 
HETATM   22  C18   D T 153      -8.680  -1.222  29.165  1.00 23.65     0.095 A 
HETATM   23  C20   D T 153      -7.918  -3.434  29.973  1.00 22.39     0.131 C 
HETATM   24  C19   D T 153      -9.595  -0.440  28.368  1.00 24.93     0.095 A 
ENDBRANCH  17  18
ENDBRANCH  16  17
ENDBRANCH  15  16
ENDBRANCH  14  15
BRANCH   1  25
HETATM   25  C21   D T 153      -8.687  -0.687  21.249  1.00 26.87     0.419 C 
HETATM   26  F1    D T 153      -8.125  -0.372  20.112  1.00 26.36    -0.166 F 
HETATM   27  F2    D T 153      -8.140  -1.790  21.664  1.00 25.74    -0.166 F 
HETATM   28  F3    D T 153      -8.163   0.179  22.052  1.00 29.44    -0.166 F 
ENDBRANCH   1  25
TORSDOF 5
ENDMDL
MODEL 5
REMARK VINA RESULT:    -6.296      5.310      9.484
REMARK INTER + INTRA:          -8.047
REMARK INTER:                  -7.287
REMARK INTRA:                  -0.760
REMARK UNBOUND:                 0.090
REMARK  5 active torsions:
REMARK  status: ('A' for Active; 'I' for Inactive)
REMARK    1  A    between atoms: C1_1  and  C21_25 
REMARK    2  A    between atoms: N1_14  and  C13_15 
REMARK    3  A    between atoms: C13_15  and  C14_16 
REMARK    4  A    between atoms: C14_16  and  C15_17 
REMARK    5  A    between atoms: C15_17  and  N2_18 
ROOT
HETATM    1  C1    D T 153     -15.596   1.573  25.455  1.00 26.21     0.073 A 
HETATM    2  C2    D T 153     -16.566   0.936  24.693  1.00 21.83     0.004 A 
HETATM    3  C3    D T 153     -16.192  -0.053  23.812  1.00 19.56     0.008 A 
HETATM    4  C4    D T 153     -14.865  -0.427  23.689  1.00 21.19     0.045 A 
HETATM    5  C5    D T 153     -13.896   0.136  24.517  1.00 23.95     0.066 A 
HETATM    6  C6    D T 153     -14.261   1.190  25.369  1.00 23.48     0.022 A 
HETATM    7  S     D T 153     -14.442  -1.613  22.437  1.00 23.13    -0.084 SA
HETATM    8  C7    D T 153     -12.820  -1.168  22.016  1.00 22.23     0.045 A 
HETATM    9  C8    D T 153     -12.358  -1.533  20.748  1.00 19.63     0.008 A 
HETATM   10  C9    D T 153     -11.070  -1.256  20.354  1.00 14.46     0.001 A 
HETATM   11  C10   D T 153     -10.234  -0.641  21.239  1.00 16.71     0.002 A 
HETATM   12  C11   D T 153     -10.700  -0.272  22.505  1.00 22.55     0.018 A 
HETATM   13  C12   D T 153     -12.029  -0.470  22.927  1.00 24.03     0.066 A 
HETATM   14  N1    D T 153     -12.510  -0.183  24.318  1.00 27.67    -0.327 N 
ENDROOT
BRANCH  14  15
HETATM   15  C13   D T 153     -11.612   0.487  25.257  1.00 25.39     0.108 C 
BRANCH  15  16
HETATM   16  C14   D T 153     -11.105  -0.462  26.354  1.00 23.98     0.049 C 
BRANCH  16  17
HETATM   17  C15   D T 153     -11.437   0.035  27.764  1.00 23.67     0.108 C 
BRANCH  17  18
HETATM   18  N2    D T 153     -10.338   0.001  28.687  1.00 22.79    -0.323 N 
HETATM   19  C16   D T 153      -9.445  -1.100  28.638  1.00 24.85     0.095 A 
HETATM   20  C17   D T 153      -8.335  -1.193  29.539  1.00 24.41     0.095 A 
HETATM   21  N3    D T 153      -8.116  -0.170  30.509  1.00 24.18    -0.321 N 
HETATM   22  C18   D T 153      -9.008   0.937  30.582  1.00 23.65     0.095 A 
HETATM   23  C20   D T 153      -7.004  -0.269  31.390  1.00 22.39     0.131 C 
HETATM   24  C19   D T 153     -10.121   1.020  29.667  1.00 24.93     0.095 A 
ENDBRANCH  17  18
ENDBRANCH  16  17
ENDBRANCH  15  16
ENDBRANCH  14  15
BRANCH   1  25
HETATM   25  C21   D T 153     -15.976   2.713  26.282  1.00 26.87     0.419 C 
HETATM   26  F1    D T 153     -16.233   2.412  27.527  1.00 26.36    -0.166 F 
HETATM   27  F2    D T 153     -17.013   3.335  25.807  1.00 25.74    -0.166 F 
HETATM   28  F3    D T 153     -15.132   3.684  26.414  1.00 29.44    -0.166 F 
ENDBRANCH   1  25
TORSDOF 5
ENDMDL
MODEL 6
REMARK VINA RESULT:    -6.294      9.186     10.961
REMARK INTER + INTRA:          -8.044
REMARK INTER:                  -7.081
REMARK INTRA:                  -0.963
REMARK UNBOUND:                 0.090
REMARK  5 active torsions:
REMARK  status: ('A' for Active; 'I' for Inactive)
REMARK    1  A    between atoms: C1_1  and  C21_25 
REMARK    2  A    between atoms: N1_14  and  C13_15 
REMARK    3  A    between atoms: C13_15  and  C14_16 
REMARK    4  A    between atoms: C14_16  and  C15_17 
REMARK    5  A    between atoms: C15_17  and  N2_18 
ROOT
HETATM    1  C1    D T 153      -6.903  -7.822  28.692  1.00 26.21     0.073 A 
HETATM    2  C2    D T 153      -6.769  -8.993  29.425  1.00 21.83     0.004 A 
HETATM    3  C3    D T 153      -7.444 -10.123  29.022  1.00 19.56     0.008 A 
HETATM    4  C4    D T 153      -8.240 -10.106  27.890  1.00 21.19     0.045 A 
HETATM    5  C5    D T 153      -8.305  -8.966  27.092  1.00 23.95     0.066 A 
HETATM    6  C6    D T 153      -7.672  -7.792  27.533  1.00 23.48     0.022 A 
HETATM    7  S     D T 153      -9.184 -11.560  27.510  1.00 23.13    -0.084 SA
HETATM    8  C7    D T 153     -10.573 -10.917  26.696  1.00 22.23     0.045 A 
HETATM    9  C8    D T 153     -11.742 -11.684  26.706  1.00 19.63     0.008 A 
HETATM   10  C9    D T 153     -12.873 -11.265  26.047  1.00 14.46     0.001 A 
HETATM   11  C10   D T 153     -12.828 -10.092  25.352  1.00 16.71     0.002 A 
HETATM   12  C11   D T 153     -11.659  -9.325  25.346  1.00 22.55     0.018 A 
HETATM   13  C12   D T 153     -10.500  -9.677  26.064  1.00 24.03     0.066 A 
HETATM   14  N1    D T 153      -9.207  -8.923  25.976  1.00 27.67    -0.327 N 
ENDROOT
BRANCH  14  15
HETATM   15  C13   D T 153      -9.168  -7.661  25.238  1.00 25.39     0.108 C 
BRANCH  15  16
HETATM   16  C14   D T 153      -8.417  -7.790  23.904  1.00 23.98     0.049 C 
BRANCH  16  17
HETATM   17  C15   D T 153      -7.681  -6.505  23.514  1.00 23.67     0.108 C 
BRANCH  17  18
HETATM   18  N2    D T 153      -6.264  -6.533  23.740  1.00 22.79    -0.323 N 
HETATM   19  C16   D T 153      -5.577  -7.765  23.590  1.00 24.85     0.095 A 
HETATM   20  C17   D T 153      -4.164  -7.856  23.810  1.00 24.41     0.095 A 
HETATM   21  N3    D T 153      -3.425  -6.697  24.190  1.00 24.18    -0.321 N 
HETATM   22  C18   D T 153      -4.098  -5.453  24.357  1.00 23.65     0.095 A 
HETATM   23  C20   D T 153      -2.021  -6.799  24.394  1.00 22.39     0.131 C 
HETATM   24  C19   D T 153      -5.521  -5.375  24.130  1.00 24.93     0.095 A 
ENDBRANCH  17  18
ENDBRANCH  16  17
ENDBRANCH  15  16
ENDBRANCH  14  15
BRANCH   1  25
HETATM   25  C21   D T 153      -6.301  -6.592  29.198  1.00 26.87     0.419 C 
HETATM   26  F1    D T 153      -7.126  -5.582  29.272  1.00 26.36    -0.166 F 
HETATM   27  F2    D T 153      -5.285  -6.216  28.481  1.00 25.74    -0.166 F 
HETATM   28  F3    D T 153      -5.790  -6.603  30.385  1.00 29.44    -0.166 F 
ENDBRANCH   1  25
TORSDOF 5
ENDMDL
MODEL 7
REMARK VINA RESULT:    -6.238     10.515     13.199
REMARK INTER + INTRA:          -7.972
REMARK INTER:                  -7.778
REMARK INTRA:                  -0.194
REMARK UNBOUND:                 0.090
REMARK  5 active torsions:
REMARK  status: ('A' for Active; 'I' for Inactive)
REMARK    1  A    between atoms: C1_1  and  C21_25 
REMARK    2  A    between atoms: N1_14  and  C13_15 
REMARK    3  A    between atoms: C13_15  and  C14_16 
REMARK    4  A    between atoms: C14_16  and  C15_17 
REMARK    5  A    between atoms: C15_17  and  N2_18 
ROOT
HETATM    1  C1    D T 153      -6.716  -9.505  19.248  1.00 26.21     0.073 A 
HETATM    2  C2    D T 153      -6.792 -10.703  18.550  1.00 21.83     0.004 A 
HETATM    3  C3    D T 153      -6.709 -11.892  19.237  1.00 19.56     0.008 A 
HETATM    4  C4    D T 153      -6.566 -11.906  20.614  1.00 21.19     0.045 A 
HETATM    5  C5    D T 153      -6.586 -10.714  21.335  1.00 23.95     0.066 A 
HETATM    6  C6    D T 153      -6.604  -9.497  20.635  1.00 23.48     0.022 A 
HETATM    7  S     D T 153      -6.329 -13.472  21.415  1.00 23.13    -0.084 SA
HETATM    8  C7    D T 153      -5.372 -13.058  22.800  1.00 22.23     0.045 A 
HETATM    9  C8    D T 153      -4.584 -14.064  23.366  1.00 19.63     0.008 A 
HETATM   10  C9    D T 153      -3.830 -13.827  24.491  1.00 14.46     0.001 A 
HETATM   11  C10   D T 153      -3.887 -12.593  25.069  1.00 16.71     0.002 A 
HETATM   12  C11   D T 153      -4.674 -11.588  24.499  1.00 22.55     0.018 A 
HETATM   13  C12   D T 153      -5.406 -11.760  23.308  1.00 24.03     0.066 A 
HETATM   14  N1    D T 153      -6.339 -10.728  22.749  1.00 27.67    -0.327 N 
ENDROOT
BRANCH  14  15
HETATM   15  C13   D T 153      -6.388  -9.404  23.368  1.00 25.39     0.108 C 
BRANCH  15  16
HETATM   16  C14   D T 153      -5.009  -8.729  23.405  1.00 23.98     0.049 C 
BRANCH  16  17
HETATM   17  C15   D T 153      -5.071  -7.287  23.919  1.00 23.67     0.108 C 
BRANCH  17  18
HETATM   18  N2    D T 153      -3.813  -6.596  23.923  1.00 22.79    -0.323 N 
HETATM   19  C16   D T 153      -2.625  -7.352  24.098  1.00 24.85     0.095 A 
HETATM   20  C17   D T 153      -1.340  -6.716  24.118  1.00 24.41     0.095 A 
HETATM   21  N3    D T 153      -1.242  -5.300  23.965  1.00 24.18    -0.321 N 
HETATM   22  C18   D T 153      -2.424  -4.524  23.800  1.00 23.65     0.095 A 
HETATM   23  C20   D T 153       0.039  -4.685  23.975  1.00 22.39     0.131 C 
HETATM   24  C19   D T 153      -3.711  -5.177  23.778  1.00 24.93     0.095 A 
ENDBRANCH  17  18
ENDBRANCH  16  17
ENDBRANCH  15  16
ENDBRANCH  14  15
BRANCH   1  25
HETATM   25  C21   D T 153      -6.663  -8.250  18.506  1.00 26.87     0.419 C 
HETATM   26  F1    D T 153      -7.415  -8.227  17.437  1.00 26.36    -0.166 F 
HETATM   27  F2    D T 153      -5.453  -7.952  18.139  1.00 25.74    -0.166 F 
HETATM   28  F3    D T 153      -7.025  -7.165  19.107  1.00 29.44    -0.166 F 
ENDBRANCH   1  25
TORSDOF 5
ENDMDL
MODEL 8
REMARK VINA RESULT:    -6.164      4.607      7.645
REMARK INTER + INTRA:          -7.876
REMARK INTER:                  -6.600
REMARK INTRA:                  -1.276
REMARK UNBOUND:                 0.090
REMARK  5 active torsions:
REMARK  status: ('A' for Active; 'I' for Inactive)
REMARK    1  A    between atoms: C1_1  and  C21_25 
REMARK    2  A    between atoms: N1_14  and  C13_15 
REMARK    3  A    between atoms: C13_15  and  C14_16 
REMARK    4  A    between atoms: C14_16  and  C15_17 
REMARK    5  A    between atoms: C15_17  and  N2_18 
ROOT
HETATM    1  C1    D T 153     -16.066  -2.915  25.393  1.00 26.21     0.073 A 
HETATM    2  C2    D T 153     -15.281  -2.388  26.409  1.00 21.83     0.004 A 
HETATM    3  C3    D T 153     -14.256  -1.526  26.093  1.00 19.56     0.008 A 
HETATM    4  C4    D T 153     -14.011  -1.169  24.778  1.00 21.19     0.045 A 
HETATM    5  C5    D T 153     -14.851  -1.614  23.760  1.00 23.95     0.066 A 
HETATM    6  C6    D T 153     -15.856  -2.545  24.068  1.00 23.48     0.022 A 
HETATM    7  S     D T 153     -12.590  -0.161  24.436  1.00 23.13    -0.084 SA
HETATM    8  C7    D T 153     -12.142  -0.655  22.835  1.00 22.23     0.045 A 
HETATM    9  C8    D T 153     -10.813  -0.462  22.447  1.00 19.63     0.008 A 
HETATM   10  C9    D T 153     -10.389  -0.787  21.180  1.00 14.46     0.001 A 
HETATM   11  C10   D T 153     -11.300  -1.277  20.291  1.00 16.71     0.002 A 
HETATM   12  C11   D T 153     -12.628  -1.473  20.683  1.00 22.55     0.018 A 
HETATM   13  C12   D T 153     -13.093  -1.223  21.989  1.00 24.03     0.066 A 
HETATM   14  N1    D T 153     -14.535  -1.322  22.391  1.00 27.67    -0.327 N 
ENDROOT
BRANCH  14  15
HETATM   15  C13   D T 153     -15.504  -1.858  21.436  1.00 25.39     0.108 C 
BRANCH  15  16
HETATM   16  C14   D T 153     -16.364  -0.756  20.801  1.00 23.98     0.049 C 
BRANCH  16  17
HETATM   17  C15   D T 153     -17.770  -0.682  21.406  1.00 23.67     0.108 C 
BRANCH  17  18
HETATM   18  N2    D T 153     -17.860   0.071  22.624  1.00 22.79    -0.323 N 
HETATM   19  C16   D T 153     -17.075   1.246  22.755  1.00 24.85     0.095 A 
HETATM   20  C17   D T 153     -17.117   2.034  23.952  1.00 24.41     0.095 A 
HETATM   21  N3    D T 153     -17.955   1.640  25.037  1.00 24.18    -0.321 N 
HETATM   22  C18   D T 153     -18.741   0.458  24.929  1.00 23.65     0.095 A 
HETATM   23  C20   D T 153     -17.995   2.437  26.213  1.00 22.39     0.131 C 
HETATM   24  C19   D T 153     -18.691  -0.326  23.718  1.00 24.93     0.095 A 
ENDBRANCH  17  18
ENDBRANCH  16  17
ENDBRANCH  15  16
ENDBRANCH  14  15
BRANCH   1  25
HETATM   25  C21   D T 153     -17.058  -3.935  25.716  1.00 26.87     0.419 C 
HETATM   26  F1    D T 153     -17.652  -4.455  24.674  1.00 26.36    -0.166 F 
HETATM   27  F2    D T 153     -17.983  -3.482  26.507  1.00 25.74    -0.166 F 
HETATM   28  F3    D T 153     -16.668  -4.991  26.352  1.00 29.44    -0.166 F 
ENDBRANCH   1  25
TORSDOF 5
ENDMDL
