MODEL 1
REMARK VINA RESULT:    -7.373      0.000      0.000
REMARK INTER + INTRA:         -10.639
REMARK INTER:                  -9.959
REMARK INTRA:                  -0.680
REMARK UNBOUND:                -0.680
REMARK  6 active torsions:
REMARK  status: ('A' for Active; 'I' for Inactive)
REMARK    1  A    between atoms: N6_6  and  O7_7 
REMARK    2  A    between atoms: O7_7  and  C8_8 
REMARK    3  A    between atoms: C8_8  and  C9_9 
REMARK    4  A    between atoms: C9_9  and  C10_10 
REMARK    5  A    between atoms: C10_10  and  O11_11 
REMARK    6  A    between atoms: O11_11  and  C12_12 
ROOT
HETATM    1  C8    D T 709     -28.107  -9.569   7.391  1.00 64.95     0.177 C 
ENDROOT
BRANCH   1   2
HETATM    2  O7    D T 709     -28.589 -10.700   8.233  1.00 65.78    -0.242 OA
BRANCH   2   3
HETATM    3  N6    D T 709     -29.558 -11.652   7.685  1.00 60.25    -0.046 N 
HETATM    4  C1    D T 709     -29.102 -13.046   7.838  1.00 59.54     0.209 C 
HETATM    5  N2    D T 709     -30.020 -14.013   7.196  1.00 58.34    -0.064 NA
HETATM    6  CM1   D T 709     -27.698 -13.155   7.234  1.00 58.30     0.051 C 
HETATM    7  CM2   D T 709     -29.008 -13.382   9.346  1.00 58.50     0.051 C 
HETATM    8  C3    D T 709     -31.291 -13.705   6.960  1.00 57.46     0.781 C 
HETATM    9  N4    D T 709     -31.796 -12.487   7.296  1.00 59.05     0.137 NA
HETATM   10  NH1   D T 709     -32.066 -14.585   6.389  1.00 57.08     0.062 N 
HETATM   11  C5    D T 709     -30.961 -11.446   7.660  1.00 59.54     0.785 C 
HETATM   12  NH2   D T 709     -31.500 -10.288   7.988  1.00 59.54     0.063 N 
ENDBRANCH   2   3
ENDBRANCH   1   2
BRANCH   1  13
HETATM   13  C9    D T 709     -26.761  -9.137   8.005  1.00 65.45     0.068 C 
BRANCH  13  14
HETATM   14  C10   D T 709     -26.272 -10.218   9.124  1.00 66.22     0.151 C 
BRANCH  14  15
HETATM   15  O11   D T 709     -24.771 -10.514   8.935  1.00 65.87    -0.334 OA
BRANCH  15  16
HETATM   16  C12   D T 709     -23.878  -9.566   9.570  1.00 64.85     0.087 A 
HETATM   17  C13   D T 709     -23.110  -8.622   8.735  1.00 64.39     0.077 A 
HETATM   18  C14   D T 709     -22.181  -7.710   9.334  1.00 65.61     0.025 A 
HETATM   19 CL1    D T 709     -23.297  -8.618   6.967  1.00 64.58    -0.081 Cl
HETATM   20  C15   D T 709     -21.975  -7.671  10.767  1.00 65.79     0.066 A 
HETATM   21  C16   D T 709     -22.753  -8.601  11.657  1.00 65.66     0.052 A 
HETATM   22 CL2    D T 709     -20.778  -6.513  11.447  1.00 67.31    -0.082 Cl
HETATM   23  C17   D T 709     -23.706  -9.542  11.054  1.00 65.12     0.091 A 
HETATM   24 CL3    D T 709     -22.532  -8.566  13.421  1.00 64.94    -0.086 Cl
ENDBRANCH  15  16
ENDBRANCH  14  15
ENDBRANCH  13  14
ENDBRANCH   1  13
TORSDOF 6
ENDMDL
MODEL 2
REMARK VINA RESULT:    -7.361      5.120      8.396
REMARK INTER + INTRA:         -10.623
REMARK INTER:                 -10.037
REMARK INTRA:                  -0.586
REMARK UNBOUND:                -0.680
REMARK  6 active torsions:
REMARK  status: ('A' for Active; 'I' for Inactive)
REMARK    1  A    between atoms: N6_6  and  O7_7 
REMARK    2  A    between atoms: O7_7  and  C8_8 
REMARK    3  A    between atoms: C8_8  and  C9_9 
REMARK    4  A    between atoms: C9_9  and  C10_10 
REMARK    5  A    between atoms: C10_10  and  O11_11 
REMARK    6  A    between atoms: O11_11  and  C12_12 
ROOT
HETATM    1  C8    D T 709     -24.037  -9.340   9.515  1.00 64.95     0.177 C 
ENDROOT
BRANCH   1   2
HETATM    2  O7    D T 709     -23.936  -9.608  10.977  1.00 65.78    -0.242 OA
BRANCH   2   3
HETATM    3  N6    D T 709     -22.902 -10.516  11.479  1.00 60.25    -0.046 N 
HETATM    4  C1    D T 709     -22.159  -9.928  12.608  1.00 59.54     0.209 C 
HETATM    5  N2    D T 709     -21.043 -10.791  13.058  1.00 58.34    -0.064 NA
HETATM    6  CM1   D T 709     -21.635  -8.557  12.170  1.00 58.30     0.051 C 
HETATM    7  CM2   D T 709     -23.129  -9.720  13.796  1.00 58.50     0.051 C 
HETATM    8  C3    D T 709     -21.034 -12.095  12.806  1.00 57.46     0.781 C 
HETATM    9  N4    D T 709     -22.049 -12.688  12.122  1.00 59.05     0.137 NA
HETATM   10  NH1   D T 709     -20.029 -12.819  13.217  1.00 57.08     0.062 N 
HETATM   11  C5    D T 709     -22.994 -11.932  11.451  1.00 59.54     0.785 C 
HETATM   12  NH2   D T 709     -23.965 -12.554  10.813  1.00 59.54     0.063 N 
ENDBRANCH   2   3
ENDBRANCH   1   2
BRANCH   1  13
HETATM   13  C9    D T 709     -24.881  -8.055   9.384  1.00 65.45     0.068 C 
BRANCH  13  14
HETATM   14  C10   D T 709     -26.273  -8.367   8.596  1.00 66.22     0.151 C 
BRANCH  14  15
HETATM   15  O11   D T 709     -26.087  -9.598   7.685  1.00 65.87    -0.334 OA
BRANCH  15  16
HETATM   16  C12   D T 709     -27.209 -10.514   7.662  1.00 64.85     0.087 A 
HETATM   17  C13   D T 709     -26.956 -11.968   7.637  1.00 64.39     0.077 A 
HETATM   18  C14   D T 709     -28.047 -12.895   7.559  1.00 65.61     0.025 A 
HETATM   19 CL1    D T 709     -25.295 -12.600   7.668  1.00 64.58    -0.081 Cl
HETATM   20  C15   D T 709     -29.422 -12.444   7.519  1.00 65.79     0.066 A 
HETATM   21  C16   D T 709     -29.726 -10.971   7.565  1.00 65.66     0.052 A 
HETATM   22 CL2    D T 709     -30.740 -13.663   7.403  1.00 67.31    -0.082 Cl
HETATM   23  C17   D T 709     -28.616 -10.011   7.640  1.00 65.12     0.091 A 
HETATM   24 CL3    D T 709     -31.405 -10.388   7.531  1.00 64.94    -0.086 Cl
ENDBRANCH  15  16
ENDBRANCH  14  15
ENDBRANCH  13  14
ENDBRANCH   1  13
TORSDOF 6
ENDMDL
MODEL 3
REMARK VINA RESULT:    -7.326      5.452      9.007
REMARK INTER + INTRA:         -10.575
REMARK INTER:                 -10.276
REMARK INTRA:                  -0.299
REMARK UNBOUND:                -0.680
REMARK  6 active torsions:
REMARK  status: ('A' for Active; 'I' for Inactive)
REMARK    1  A    between atoms: N6_6  and  O7_7 
REMARK    2  A    between atoms: O7_7  and  C8_8 
REMARK    3  A    between atoms: C8_8  and  C9_9 
REMARK    4  A    between atoms: C9_9  and  C10_10 
REMARK    5  A    between atoms: C10_10  and  O11_11 
REMARK    6  A    between atoms: O11_11  and  C12_12 
ROOT
HETATM    1  C8    D T 709     -25.144  -8.843  10.182  1.00 64.95     0.177 C 
ENDROOT
BRANCH   1   2
HETATM    2  O7    D T 709     -23.871  -9.614  10.112  1.00 65.78    -0.242 OA
BRANCH   2   3
HETATM    3  N6    D T 709     -22.592  -8.919  10.268  1.00 60.25    -0.046 N 
HETATM    4  C1    D T 709     -21.883  -9.346  11.489  1.00 59.54     0.209 C 
HETATM    5  N2    D T 709     -20.638  -8.577  11.716  1.00 58.34    -0.064 NA
HETATM    6  CM1   D T 709     -22.839  -9.183  12.674  1.00 58.30     0.051 C 
HETATM    7  CM2   D T 709     -21.519 -10.845  11.362  1.00 58.50     0.051 C 
HETATM    8  C3    D T 709     -20.019  -7.955  10.717  1.00 57.46     0.781 C 
HETATM    9  N4    D T 709     -20.508  -8.000   9.449  1.00 59.05     0.137 NA
HETATM   10  NH1   D T 709     -18.926  -7.286  10.961  1.00 57.08     0.062 N 
HETATM   11  C5    D T 709     -21.783  -8.472   9.192  1.00 59.54     0.785 C 
HETATM   12  NH2   D T 709     -22.205  -8.505   7.944  1.00 59.54     0.063 N 
ENDBRANCH   2   3
ENDBRANCH   1   2
BRANCH   1  13
HETATM   13  C9    D T 709     -25.389  -8.311   8.756  1.00 65.45     0.068 C 
BRANCH  13  14
HETATM   14  C10   D T 709     -26.471  -9.250   7.977  1.00 66.22     0.151 C 
BRANCH  14  15
HETATM   15  O11   D T 709     -27.071 -10.273   8.963  1.00 65.87    -0.334 OA
BRANCH  15  16
HETATM   16  C12   D T 709     -28.059 -11.164   8.389  1.00 64.85     0.087 A 
HETATM   17  C13   D T 709     -27.626 -12.454   7.816  1.00 64.39     0.077 A 
HETATM   18  C14   D T 709     -28.575 -13.329   7.195  1.00 65.61     0.025 A 
HETATM   19 CL1    D T 709     -25.914 -12.932   7.854  1.00 64.58    -0.081 Cl
HETATM   20  C15   D T 709     -29.981 -12.992   7.122  1.00 65.79     0.066 A 
HETATM   21  C16   D T 709     -30.470 -11.697   7.713  1.00 65.66     0.052 A 
HETATM   22 CL2    D T 709     -31.114 -14.131   6.310  1.00 67.31    -0.082 Cl
HETATM   23  C17   D T 709     -29.505 -10.790   8.349  1.00 65.12     0.091 A 
HETATM   24 CL3    D T 709     -32.192 -11.263   7.651  1.00 64.94    -0.086 Cl
ENDBRANCH  15  16
ENDBRANCH  14  15
ENDBRANCH  13  14
ENDBRANCH   1  13
TORSDOF 6
ENDMDL
MODEL 4
REMARK VINA RESULT:    -7.184      6.016      8.638
REMARK INTER + INTRA:         -10.383
REMARK INTER:                  -9.928
REMARK INTRA:                  -0.456
REMARK UNBOUND:                -0.680
REMARK  6 active torsions:
REMARK  status: ('A' for Active; 'I' for Inactive)
REMARK    1  A    between atoms: N6_6  and  O7_7 
REMARK    2  A    between atoms: O7_7  and  C8_8 
REMARK    3  A    between atoms: C8_8  and  C9_9 
REMARK    4  A    between atoms: C9_9  and  C10_10 
REMARK    5  A    between atoms: C10_10  and  O11_11 
REMARK    6  A    between atoms: O11_11  and  C12_12 
ROOT
HETATM    1  C8    D T 709     -20.405  -9.240  12.458  1.00 64.95     0.177 C 
ENDROOT
BRANCH   1   2
HETATM    2  O7    D T 709     -20.901  -9.478  11.074  1.00 65.78    -0.242 OA
BRANCH   2   3
HETATM    3  N6    D T 709     -22.281  -9.131  10.728  1.00 60.25    -0.046 N 
HETATM    4  C1    D T 709     -22.341  -8.011   9.771  1.00 59.54     0.209 C 
HETATM    5  N2    D T 709     -23.729  -7.581   9.492  1.00 58.34    -0.064 NA
HETATM    6  CM1   D T 709     -21.524  -6.851  10.348  1.00 58.30     0.051 C 
HETATM    7  CM2   D T 709     -21.685  -8.450   8.440  1.00 58.50     0.051 C 
HETATM    8  C3    D T 709     -24.758  -8.398   9.691  1.00 57.46     0.781 C 
HETATM    9  N4    D T 709     -24.574  -9.662  10.161  1.00 59.05     0.137 NA
HETATM   10  NH1   D T 709     -25.967  -7.979   9.436  1.00 57.08     0.062 N 
HETATM   11  C5    D T 709     -23.355 -10.057  10.684  1.00 59.54     0.785 C 
HETATM   12  NH2   D T 709     -23.225 -11.295  11.116  1.00 59.54     0.063 N 
ENDBRANCH   2   3
ENDBRANCH   1   2
BRANCH   1  13
HETATM   13  C9    D T 709     -20.348 -10.630  13.125  1.00 65.45     0.068 C 
BRANCH  13  14
HETATM   14  C10   D T 709     -21.454 -10.734  14.319  1.00 66.22     0.151 C 
BRANCH  14  15
HETATM   15  O11   D T 709     -21.433 -12.154  14.920  1.00 65.87    -0.334 OA
BRANCH  15  16
HETATM   16  C12   D T 709     -20.115 -12.654  15.256  1.00 64.85     0.087 A 
HETATM   17  C13   D T 709     -19.685 -13.967  14.739  1.00 64.39     0.077 A 
HETATM   18  C14   D T 709     -18.408 -14.508  15.100  1.00 65.61     0.025 A 
HETATM   19 CL1    D T 709     -20.753 -14.920  13.685  1.00 64.58    -0.081 Cl
HETATM   20  C15   D T 709     -17.497 -13.787  15.964  1.00 65.79     0.066 A 
HETATM   21  C16   D T 709     -17.886 -12.435  16.496  1.00 65.66     0.052 A 
HETATM   22 CL2    D T 709     -15.918 -14.536  16.391  1.00 67.31    -0.082 Cl
HETATM   23  C17   D T 709     -19.195 -11.871  16.135  1.00 65.12     0.091 A 
HETATM   24 CL3    D T 709     -16.783 -11.520  17.547  1.00 64.94    -0.086 Cl
ENDBRANCH  15  16
ENDBRANCH  14  15
ENDBRANCH  13  14
ENDBRANCH   1  13
TORSDOF 6
ENDMDL
MODEL 5
REMARK VINA RESULT:    -7.112      5.333      8.970
REMARK INTER + INTRA:         -10.287
REMARK INTER:                 -10.232
REMARK INTRA:                  -0.054
REMARK UNBOUND:                -0.680
REMARK  6 active torsions:
REMARK  status: ('A' for Active; 'I' for Inactive)
REMARK    1  A    between atoms: N6_6  and  O7_7 
REMARK    2  A    between atoms: O7_7  and  C8_8 
REMARK    3  A    between atoms: C8_8  and  C9_9 
REMARK    4  A    between atoms: C9_9  and  C10_10 
REMARK    5  A    between atoms: C10_10  and  O11_11 
REMARK    6  A    between atoms: O11_11  and  C12_12 
ROOT
HETATM    1  C8    D T 709     -25.446  -8.785   9.857  1.00 64.95     0.177 C 
ENDROOT
BRANCH   1   2
HETATM    2  O7    D T 709     -24.302  -9.581   9.329  1.00 65.78    -0.242 OA
BRANCH   2   3
HETATM    3  N6    D T 709     -22.954  -9.350   9.853  1.00 60.25    -0.046 N 
HETATM    4  C1    D T 709     -22.251  -8.290   9.108  1.00 59.54     0.209 C 
HETATM    5  N2    D T 709     -20.852  -8.117   9.558  1.00 58.34    -0.064 NA
HETATM    6  CM1   D T 709     -22.297  -8.646   7.619  1.00 58.30     0.051 C 
HETATM    7  CM2   D T 709     -23.001  -6.951   9.310  1.00 58.50     0.051 C 
HETATM    8  C3    D T 709     -20.461  -8.514  10.765  1.00 57.46     0.781 C 
HETATM    9  N4    D T 709     -21.333  -9.095  11.632  1.00 59.05     0.137 NA
HETATM   10  NH1   D T 709     -19.217  -8.347  11.121  1.00 57.08     0.062 N 
HETATM   11  C5    D T 709     -22.579  -9.523  11.211  1.00 59.54     0.785 C 
HETATM   12  NH2   D T 709     -23.392 -10.070  12.093  1.00 59.54     0.063 N 
ENDBRANCH   2   3
ENDBRANCH   1   2
BRANCH   1  13
HETATM   13  C9    D T 709     -26.234  -8.315   8.617  1.00 65.45     0.068 C 
BRANCH  13  14
HETATM   14  C10   D T 709     -26.883  -9.592   7.838  1.00 66.22     0.151 C 
BRANCH  14  15
HETATM   15  O11   D T 709     -27.571 -10.523   8.858  1.00 65.87    -0.334 OA
BRANCH  15  16
HETATM   16  C12   D T 709     -28.642 -11.335   8.315  1.00 64.85     0.087 A 
HETATM   17  C13   D T 709     -28.345 -12.699   7.835  1.00 64.39     0.077 A 
HETATM   18  C14   D T 709     -29.375 -13.502   7.245  1.00 65.61     0.025 A 
HETATM   19 CL1    D T 709     -26.699 -13.361   7.948  1.00 64.58    -0.081 Cl
HETATM   20  C15   D T 709     -30.733 -13.016   7.114  1.00 65.79     0.066 A 
HETATM   21  C16   D T 709     -31.084 -11.640   7.611  1.00 65.66     0.052 A 
HETATM   22 CL2    D T 709     -31.970 -14.073   6.346  1.00 67.31    -0.082 Cl
HETATM   23  C17   D T 709     -30.036 -10.806   8.214  1.00 65.12     0.091 A 
HETATM   24 CL3    D T 709     -32.745 -11.023   7.476  1.00 64.94    -0.086 Cl
ENDBRANCH  15  16
ENDBRANCH  14  15
ENDBRANCH  13  14
ENDBRANCH   1  13
TORSDOF 6
ENDMDL
MODEL 6
REMARK VINA RESULT:    -6.933      1.735      2.372
REMARK INTER + INTRA:         -10.044
REMARK INTER:                  -9.630
REMARK INTRA:                  -0.414
REMARK UNBOUND:                -0.680
REMARK  6 active torsions:
REMARK  status: ('A' for Active; 'I' for Inactive)
REMARK    1  A    between atoms: N6_6  and  O7_7 
REMARK    2  A    between atoms: O7_7  and  C8_8 
REMARK    3  A    between atoms: C8_8  and  C9_9 
REMARK    4  A    between atoms: C9_9  and  C10_10 
REMARK    5  A    between atoms: C10_10  and  O11_11 
REMARK    6  A    between atoms: O11_11  and  C12_12 
ROOT
HETATM    1  C8    D T 709     -27.278  -9.535   8.255  1.00 64.95     0.177 C 
ENDROOT
BRANCH   1   2
HETATM    2  O7    D T 709     -27.940 -10.728   8.852  1.00 65.78    -0.242 OA
BRANCH   2   3
HETATM    3  N6    D T 709     -28.819 -11.560   8.028  1.00 60.25    -0.046 N 
HETATM    4  C1    D T 709     -28.329 -12.947   7.934  1.00 59.54     0.209 C 
HETATM    5  N2    D T 709     -29.148 -13.774   7.020  1.00 58.34    -0.064 NA
HETATM    6  CM1   D T 709     -26.873 -12.905   7.460  1.00 58.30     0.051 C 
HETATM    7  CM2   D T 709     -28.362 -13.590   9.341  1.00 58.50     0.051 C 
HETATM    8  C3    D T 709     -30.402 -13.444   6.728  1.00 57.46     0.781 C 
HETATM    9  N4    D T 709     -30.980 -12.332   7.258  1.00 59.05     0.137 NA
HETATM   10  NH1   D T 709     -31.089 -14.198   5.915  1.00 57.08     0.062 N 
HETATM   11  C5    D T 709     -30.221 -11.376   7.909  1.00 59.54     0.785 C 
HETATM   12  NH2   D T 709     -30.829 -10.322   8.415  1.00 59.54     0.063 N 
ENDBRANCH   2   3
ENDBRANCH   1   2
BRANCH   1  13
HETATM   13  C9    D T 709     -25.774  -9.701   8.550  1.00 65.45     0.068 C 
BRANCH  13  14
HETATM   14  C10   D T 709     -25.342  -8.790   9.832  1.00 66.22     0.151 C 
BRANCH  14  15
HETATM   15  O11   D T 709     -23.847  -8.425   9.726  1.00 65.87    -0.334 OA
BRANCH  15  16
HETATM   16  C12   D T 709     -22.988  -9.085  10.688  1.00 64.85     0.087 A 
HETATM   17  C13   D T 709     -21.987  -8.293  11.429  1.00 64.39     0.077 A 
HETATM   18  C14   D T 709     -21.090  -8.930  12.347  1.00 65.61     0.025 A 
HETATM   19 CL1    D T 709     -21.850  -6.539  11.174  1.00 64.58    -0.081 Cl
HETATM   20  C15   D T 709     -21.143 -10.357  12.590  1.00 65.79     0.066 A 
HETATM   21  C16   D T 709     -22.163 -11.198  11.873  1.00 65.66     0.052 A 
HETATM   22 CL2    D T 709     -19.972 -11.092  13.743  1.00 67.31    -0.082 Cl
HETATM   23  C17   D T 709     -23.085 -10.557  10.927  1.00 65.12     0.091 A 
HETATM   24 CL3    D T 709     -22.260 -12.950  12.163  1.00 64.94    -0.086 Cl
ENDBRANCH  15  16
ENDBRANCH  14  15
ENDBRANCH  13  14
ENDBRANCH   1  13
TORSDOF 6
ENDMDL
MODEL 7
REMARK VINA RESULT:    -6.719      6.139      8.787
REMARK INTER + INTRA:          -9.755
REMARK INTER:                  -9.157
REMARK INTRA:                  -0.598
REMARK UNBOUND:                -0.680
REMARK  6 active torsions:
REMARK  status: ('A' for Active; 'I' for Inactive)
REMARK    1  A    between atoms: N6_6  and  O7_7 
REMARK    2  A    between atoms: O7_7  and  C8_8 
REMARK    3  A    between atoms: C8_8  and  C9_9 
REMARK    4  A    between atoms: C9_9  and  C10_10 
REMARK    5  A    between atoms: C10_10  and  O11_11 
REMARK    6  A    between atoms: O11_11  and  C12_12 
ROOT
HETATM    1  C8    D T 709     -21.172  -9.572  13.137  1.00 64.95     0.177 C 
ENDROOT
BRANCH   1   2
HETATM    2  O7    D T 709     -21.206  -9.516  11.648  1.00 65.78    -0.242 OA
BRANCH   2   3
HETATM    3  N6    D T 709     -22.458  -9.188  10.962  1.00 60.25    -0.046 N 
HETATM    4  C1    D T 709     -22.288  -8.065  10.022  1.00 59.54     0.209 C 
HETATM    5  N2    D T 709     -23.566  -7.654   9.399  1.00 58.34    -0.064 NA
HETATM    6  CM1   D T 709     -21.663  -6.895  10.789  1.00 58.30     0.051 C 
HETATM    7  CM2   D T 709     -21.309  -8.489   8.902  1.00 58.50     0.051 C 
HETATM    8  C3    D T 709     -24.599  -8.487   9.329  1.00 57.46     0.781 C 
HETATM    9  N4    D T 709     -24.522  -9.749   9.830  1.00 59.05     0.137 NA
HETATM   10  NH1   D T 709     -25.709  -8.083   8.774  1.00 57.08     0.062 N 
HETATM   11  C5    D T 709     -23.471 -10.129  10.645  1.00 59.54     0.785 C 
HETATM   12  NH2   D T 709     -23.436 -11.367  11.096  1.00 59.54     0.063 N 
ENDBRANCH   2   3
ENDBRANCH   1   2
BRANCH   1  13
HETATM   13  C9    D T 709     -20.489 -10.909  13.488  1.00 65.45     0.068 C 
BRANCH  13  14
HETATM   14  C10   D T 709     -21.556 -11.928  14.182  1.00 66.22     0.151 C 
BRANCH  14  15
HETATM   15  O11   D T 709     -20.795 -13.059  14.904  1.00 65.87    -0.334 OA
BRANCH  15  16
HETATM   16  C12   D T 709     -20.501 -14.216  14.082  1.00 64.85     0.087 A 
HETATM   17  C13   D T 709     -19.225 -14.934  14.271  1.00 64.39     0.077 A 
HETATM   18  C14   D T 709     -18.887 -16.048  13.435  1.00 65.61     0.025 A 
HETATM   19 CL1    D T 709     -18.068 -14.412  15.516  1.00 64.58    -0.081 Cl
HETATM   20  C15   D T 709     -19.781 -16.514  12.396  1.00 65.79     0.066 A 
HETATM   21  C16   D T 709     -21.101 -15.825  12.184  1.00 65.66     0.052 A 
HETATM   22 CL2    D T 709     -19.281 -17.907  11.372  1.00 67.31    -0.082 Cl
HETATM   23  C17   D T 709     -21.458 -14.680  13.032  1.00 65.12     0.091 A 
HETATM   24 CL3    D T 709     -22.225 -16.385  10.925  1.00 64.94    -0.086 Cl
ENDBRANCH  15  16
ENDBRANCH  14  15
ENDBRANCH  13  14
ENDBRANCH   1  13
TORSDOF 6
ENDMDL
MODEL 8
REMARK VINA RESULT:    -6.699      2.203      3.455
REMARK INTER + INTRA:          -9.729
REMARK INTER:                  -9.785
REMARK INTRA:                   0.055
REMARK UNBOUND:                -0.680
REMARK  6 active torsions:
REMARK  status: ('A' for Active; 'I' for Inactive)
REMARK    1  A    between atoms: N6_6  and  O7_7 
REMARK    2  A    between atoms: O7_7  and  C8_8 
REMARK    3  A    between atoms: C8_8  and  C9_9 
REMARK    4  A    between atoms: C9_9  and  C10_10 
REMARK    5  A    between atoms: C10_10  and  O11_11 
REMARK    6  A    between atoms: O11_11  and  C12_12 
ROOT
HETATM    1  C8    D T 709     -27.053 -10.166   8.784  1.00 64.95     0.177 C 
ENDROOT
BRANCH   1   2
HETATM    2  O7    D T 709     -27.802 -11.296   9.401  1.00 65.78    -0.242 OA
BRANCH   2   3
HETATM    3  N6    D T 709     -28.640 -12.156   8.562  1.00 60.25    -0.046 N 
HETATM    4  C1    D T 709     -29.986 -11.587   8.369  1.00 59.54     0.209 C 
HETATM    5  N2    D T 709     -30.878 -12.493   7.612  1.00 58.34    -0.064 NA
HETATM    6  CM1   D T 709     -30.576 -11.284   9.751  1.00 58.30     0.051 C 
HETATM    7  CM2   D T 709     -29.864 -10.254   7.592  1.00 58.50     0.051 C 
HETATM    8  C3    D T 709     -30.387 -13.438   6.816  1.00 57.46     0.781 C 
HETATM    9  N4    D T 709     -29.046 -13.609   6.669  1.00 59.05     0.137 NA
HETATM   10  NH1   D T 709     -31.208 -14.218   6.168  1.00 57.08     0.062 N 
HETATM   11  C5    D T 709     -28.151 -12.987   7.521  1.00 59.54     0.785 C 
HETATM   12  NH2   D T 709     -26.860 -13.176   7.331  1.00 59.54     0.063 N 
ENDBRANCH   2   3
ENDBRANCH   1   2
BRANCH   1  13
HETATM   13  C9    D T 709     -25.564 -10.442   9.080  1.00 65.45     0.068 C 
BRANCH  13  14
HETATM   14  C10   D T 709     -24.921  -9.219   9.946  1.00 66.22     0.151 C 
BRANCH  14  15
HETATM   15  O11   D T 709     -23.387  -9.368   9.990  1.00 65.87    -0.334 OA
BRANCH  15  16
HETATM   16  C12   D T 709     -22.870 -10.003  11.186  1.00 64.85     0.087 A 
HETATM   17  C13   D T 709     -22.311  -9.167  12.266  1.00 64.39     0.077 A 
HETATM   18  C14   D T 709     -21.745  -9.772  13.436  1.00 65.61     0.025 A 
HETATM   19 CL1    D T 709     -22.297  -7.395  12.125  1.00 64.58    -0.081 Cl
HETATM   20  C15   D T 709     -21.716 -11.209  13.605  1.00 65.79     0.066 A 
HETATM   21  C16   D T 709     -22.296 -12.098  12.539  1.00 65.66     0.052 A 
HETATM   22 CL2    D T 709     -20.973 -11.900  15.091  1.00 67.31    -0.082 Cl
HETATM   23  C17   D T 709     -22.875 -11.490  11.334  1.00 65.12     0.091 A 
HETATM   24 CL3    D T 709     -22.286 -13.866  12.727  1.00 64.94    -0.086 Cl
ENDBRANCH  15  16
ENDBRANCH  14  15
ENDBRANCH  13  14
ENDBRANCH   1  13
TORSDOF 6
ENDMDL
MODEL 9
REMARK VINA RESULT:    -6.668      9.576     12.559
REMARK INTER + INTRA:          -9.687
REMARK INTER:                  -9.195
REMARK INTRA:                  -0.492
REMARK UNBOUND:                -0.680
REMARK  6 active torsions:
REMARK  status: ('A' for Active; 'I' for Inactive)
REMARK    1  A    between atoms: N6_6  and  O7_7 
REMARK    2  A    between atoms: O7_7  and  C8_8 
REMARK    3  A    between atoms: C8_8  and  C9_9 
REMARK    4  A    between atoms: C9_9  and  C10_10 
REMARK    5  A    between atoms: C10_10  and  O11_11 
REMARK    6  A    between atoms: O11_11  and  C12_12 
ROOT
HETATM    1  C8    D T 709     -19.194 -13.416  15.224  1.00 64.95     0.177 C 
ENDROOT
BRANCH   1   2
HETATM    2  O7    D T 709     -18.265 -13.578  16.377  1.00 65.78    -0.242 OA
BRANCH   2   3
HETATM    3  N6    D T 709     -16.873 -13.140  16.254  1.00 60.25    -0.046 N 
HETATM    4  C1    D T 709     -16.427 -12.395  17.446  1.00 59.54     0.209 C 
HETATM    5  N2    D T 709     -15.057 -11.856  17.293  1.00 58.34    -0.064 NA
HETATM    6  CM1   D T 709     -17.426 -11.261  17.697  1.00 58.30     0.051 C 
HETATM    7  CM2   D T 709     -16.450 -13.341  18.670  1.00 58.50     0.051 C 
HETATM    8  C3    D T 709     -14.200 -12.385  16.426  1.00 57.46     0.781 C 
HETATM    9  N4    D T 709     -14.550 -13.441  15.644  1.00 59.05     0.137 NA
HETATM   10  NH1   D T 709     -13.002 -11.878  16.321  1.00 57.08     0.062 N 
HETATM   11  C5    D T 709     -15.870 -13.841  15.536  1.00 59.54     0.785 C 
HETATM   12  NH2   D T 709     -16.157 -14.878  14.774  1.00 59.54     0.063 N 
ENDBRANCH   2   3
ENDBRANCH   1   2
BRANCH   1  13
HETATM   13  C9    D T 709     -20.499 -12.845  15.817  1.00 65.45     0.068 C 
BRANCH  13  14
HETATM   14  C10   D T 709     -20.917 -11.469  15.050  1.00 66.22     0.151 C 
BRANCH  14  15
HETATM   15  O11   D T 709     -20.503 -11.557  13.567  1.00 65.87    -0.334 OA
BRANCH  15  16
HETATM   16  C12   D T 709     -21.219 -10.663  12.680  1.00 64.85     0.087 A 
HETATM   17  C13   D T 709     -22.334 -11.189  11.867  1.00 64.39     0.077 A 
HETATM   18  C14   D T 709     -23.024 -10.338  10.943  1.00 65.61     0.025 A 
HETATM   19 CL1    D T 709     -22.822 -12.893  11.994  1.00 64.58    -0.081 Cl
HETATM   20  C15   D T 709     -22.667  -8.944  10.785  1.00 65.79     0.066 A 
HETATM   21  C16   D T 709     -21.551  -8.362  11.609  1.00 65.66     0.052 A 
HETATM   22 CL2    D T 709     -23.565  -7.941   9.591  1.00 67.31    -0.082 Cl
HETATM   23  C17   D T 709     -20.834  -9.224  12.558  1.00 65.12     0.091 A 
HETATM   24 CL3    D T 709     -21.100  -6.650  11.446  1.00 64.94    -0.086 Cl
ENDBRANCH  15  16
ENDBRANCH  14  15
ENDBRANCH  13  14
ENDBRANCH   1  13
TORSDOF 6
ENDMDL
