MODEL 1
REMARK VINA RESULT:    -7.801      0.000      0.000
REMARK INTER + INTRA:          -9.043
REMARK INTER:                  -8.714
REMARK INTRA:                  -0.329
REMARK UNBOUND:                -0.329
REMARK  4 active torsions:
REMARK  status: ('A' for Active; 'I' for Inactive)
REMARK    1  A    between atoms: C5_4  and  O7_13 
REMARK    2  A    between atoms: C8_10  and  O7_13 
REMARK    3  A    between atoms: C5_21  and  O7_30 
REMARK    4  A    between atoms: C8_27  and  O7_30 
ROOT
HETATM    1  O7    D T 400       5.696   0.283  -7.680  1.00 53.30    -0.304 OA
ENDROOT
BRANCH   1   2
HETATM    2  C5    D T 400       6.124   0.572  -8.965  1.00 52.25     0.125 A 
HETATM    3  C6    D T 400       5.153   0.594 -10.023  1.00 52.67     0.154 A 
HETATM    4  C1    D T 400       5.607   0.861 -11.312  1.00 56.55     0.041 A 
HETATM    5  O17   D T 400       3.859   0.373  -9.800  1.00 49.90    -0.188 OA
HETATM    6  C2    D T 400       6.969   1.079 -11.543  1.00 54.31     0.060 A 
HETATM    7  C3    D T 400       7.909   1.056 -10.496  1.00 52.92     0.014 A 
HETATM    8 CL14   D T 400       7.482   1.372 -13.171  1.00 55.46    -0.082 Cl
HETATM    9  C4    D T 400       7.468   0.786  -9.212  1.00 50.04     0.028 A 
ENDBRANCH   1   2
BRANCH   1  10
HETATM   10  C8    D T 400       4.995   1.278  -6.903  1.00 54.37     0.111 A 
HETATM   11  C9    D T 400       3.993   0.807  -5.990  1.00 54.35     0.081 A 
HETATM   12  C10   D T 400       3.224   1.576  -5.151  1.00 53.50     0.025 A 
HETATM   13 CL16   D T 400       3.736  -0.872  -5.936  1.00 64.25    -0.080 Cl
HETATM   14  C11   D T 400       3.447   2.978  -5.190  1.00 57.87     0.059 A 
HETATM   15  C12   D T 400       4.437   3.500  -6.062  1.00 58.16     0.013 A 
HETATM   16 CL15   D T 400       2.565   4.104  -4.225  1.00 56.65    -0.082 Cl
HETATM   17  C13   D T 400       5.205   2.658  -6.932  1.00 55.40     0.026 A 
ENDBRANCH   1  10
TORSDOF 4
ENDMDL
MODEL 2
REMARK VINA RESULT:    -7.595      1.173      5.897
REMARK INTER + INTRA:          -8.812
REMARK INTER:                  -8.526
REMARK INTRA:                  -0.286
REMARK UNBOUND:                -0.329
REMARK  4 active torsions:
REMARK  status: ('A' for Active; 'I' for Inactive)
REMARK    1  A    between atoms: C5_4  and  O7_13 
REMARK    2  A    between atoms: C8_10  and  O7_13 
REMARK    3  A    between atoms: C5_21  and  O7_30 
REMARK    4  A    between atoms: C8_27  and  O7_30 
ROOT
HETATM    1  O7    D T 400       5.706   0.186  -7.360  1.00 53.30    -0.304 OA
ENDROOT
BRANCH   1   2
HETATM    2  C5    D T 400       5.009   1.136  -6.633  1.00 52.25     0.125 A 
HETATM    3  C6    D T 400       3.971   0.693  -5.744  1.00 52.67     0.154 A 
HETATM    4  C1    D T 400       3.264   1.665  -5.040  1.00 56.55     0.041 A 
HETATM    5  O17   D T 400       3.681  -0.596  -5.582  1.00 49.90    -0.188 OA
HETATM    6  C2    D T 400       3.563   3.018  -5.225  1.00 54.31     0.060 A 
HETATM    7  C3    D T 400       4.585   3.437  -6.098  1.00 52.92     0.014 A 
HETATM    8 CL14   D T 400       2.629   4.186  -4.351  1.00 55.46    -0.082 Cl
HETATM    9  C4    D T 400       5.289   2.479  -6.806  1.00 50.04     0.028 A 
ENDBRANCH   1   2
BRANCH   1  10
HETATM   10  C8    D T 400       6.245   0.509  -8.660  1.00 54.37     0.111 A 
HETATM   11  C9    D T 400       5.349   0.425  -9.778  1.00 54.35     0.081 A 
HETATM   12  C10   D T 400       5.650   0.701 -11.090  1.00 53.50     0.025 A 
HETATM   13 CL16   D T 400       3.755  -0.060  -9.446  1.00 64.25    -0.080 Cl
HETATM   14  C11   D T 400       6.980   1.114 -11.365  1.00 57.87     0.059 A 
HETATM   15  C12   D T 400       7.905   1.233 -10.296  1.00 58.16     0.013 A 
HETATM   16 CL15   D T 400       7.547   1.485 -12.952  1.00 56.65    -0.082 Cl
HETATM   17  C13   D T 400       7.550   0.918  -8.944  1.00 55.40     0.026 A 
ENDBRANCH   1  10
TORSDOF 4
ENDMDL
MODEL 3
REMARK VINA RESULT:    -7.368      2.353      6.275
REMARK INTER + INTRA:          -8.558
REMARK INTER:                  -8.247
REMARK INTRA:                  -0.311
REMARK UNBOUND:                -0.329
REMARK  4 active torsions:
REMARK  status: ('A' for Active; 'I' for Inactive)
REMARK    1  A    between atoms: C5_4  and  O7_13 
REMARK    2  A    between atoms: C8_10  and  O7_13 
REMARK    3  A    between atoms: C5_21  and  O7_30 
REMARK    4  A    between atoms: C8_27  and  O7_30 
ROOT
HETATM    1  O7    D T 400       4.894   3.363  -7.636  1.00 53.30    -0.304 OA
ENDROOT
BRANCH   1   2
HETATM    2  C5    D T 400       4.502   2.536  -6.597  1.00 52.25     0.125 A 
HETATM    3  C6    D T 400       4.676   3.000  -5.248  1.00 52.67     0.154 A 
HETATM    4  C1    D T 400       4.299   2.144  -4.216  1.00 56.55     0.041 A 
HETATM    5  O17   D T 400       5.175   4.203  -4.973  1.00 49.90    -0.188 OA
HETATM    6  C2    D T 400       3.788   0.876  -4.510  1.00 54.31     0.060 A 
HETATM    7  C3    D T 400       3.621   0.436  -5.837  1.00 52.92     0.014 A 
HETATM    8 CL14   D T 400       3.369  -0.161  -3.188  1.00 55.46    -0.082 Cl
HETATM    9  C4    D T 400       3.999   1.277  -6.869  1.00 50.04     0.028 A 
ENDBRANCH   1   2
BRANCH   1  10
HETATM   10  C8    D T 400       5.480   2.807  -8.832  1.00 54.37     0.111 A 
HETATM   11  C9    D T 400       6.881   2.500  -8.791  1.00 54.35     0.081 A 
HETATM   12  C10   D T 400       7.630   1.956  -9.807  1.00 53.50     0.025 A 
HETATM   13 CL16   D T 400       7.697   2.837  -7.339  1.00 64.25    -0.080 Cl
HETATM   14  C11   D T 400       6.945   1.666 -11.017  1.00 57.87     0.059 A 
HETATM   15  C12   D T 400       5.554   1.933 -11.109  1.00 58.16     0.013 A 
HETATM   16 CL15   D T 400       7.720   0.998 -12.407  1.00 56.65    -0.082 Cl
HETATM   17  C13   D T 400       4.818   2.517 -10.027  1.00 55.40     0.026 A 
ENDBRANCH   1  10
TORSDOF 4
ENDMDL
MODEL 4
REMARK VINA RESULT:    -7.313      1.705      2.932
REMARK INTER + INTRA:          -8.497
REMARK INTER:                  -8.155
REMARK INTRA:                  -0.342
REMARK UNBOUND:                -0.329
REMARK  4 active torsions:
REMARK  status: ('A' for Active; 'I' for Inactive)
REMARK    1  A    between atoms: C5_4  and  O7_13 
REMARK    2  A    between atoms: C8_10  and  O7_13 
REMARK    3  A    between atoms: C5_21  and  O7_30 
REMARK    4  A    between atoms: C8_27  and  O7_30 
ROOT
HETATM    1  O7    D T 400       4.877   3.016  -7.731  1.00 53.30    -0.304 OA
ENDROOT
BRANCH   1   2
HETATM    2  C5    D T 400       5.544   2.474  -8.816  1.00 52.25     0.125 A 
HETATM    3  C6    D T 400       6.977   2.386  -8.766  1.00 52.67     0.154 A 
HETATM    4  C1    D T 400       7.632   1.860  -9.877  1.00 56.55     0.041 A 
HETATM    5  O17   D T 400       7.674   2.784  -7.704  1.00 49.90    -0.188 OA
HETATM    6  C2    D T 400       6.897   1.456 -10.996  1.00 54.31     0.060 A 
HETATM    7  C3    D T 400       5.492   1.546 -11.030  1.00 52.92     0.014 A 
HETATM    8 CL14   D T 400       7.765   0.843 -12.364  1.00 55.46    -0.082 Cl
HETATM    9  C4    D T 400       4.833   2.073  -9.932  1.00 50.04     0.028 A 
ENDBRANCH   1   2
BRANCH   1  10
HETATM   10  C8    D T 400       4.507   2.185  -6.610  1.00 54.37     0.111 A 
HETATM   11  C9    D T 400       3.886   2.835  -5.491  1.00 54.35     0.081 A 
HETATM   12  C10   D T 400       3.446   2.234  -4.336  1.00 53.50     0.025 A 
HETATM   13 CL16   D T 400       3.668   4.516  -5.608  1.00 64.25    -0.080 Cl
HETATM   14  C11   D T 400       3.621   0.828  -4.244  1.00 57.87     0.059 A 
HETATM   15  C12   D T 400       4.213   0.130  -5.328  1.00 58.16     0.013 A 
HETATM   16 CL15   D T 400       3.148  -0.095  -2.866  1.00 56.65    -0.082 Cl
HETATM   17  C13   D T 400       4.672   0.803  -6.507  1.00 55.40     0.026 A 
ENDBRANCH   1  10
TORSDOF 4
ENDMDL
MODEL 5
REMARK VINA RESULT:    -7.294      2.194      2.592
REMARK INTER + INTRA:          -8.476
REMARK INTER:                  -7.990
REMARK INTRA:                  -0.485
REMARK UNBOUND:                -0.329
REMARK  4 active torsions:
REMARK  status: ('A' for Active; 'I' for Inactive)
REMARK    1  A    between atoms: C5_4  and  O7_13 
REMARK    2  A    between atoms: C8_10  and  O7_13 
REMARK    3  A    between atoms: C5_21  and  O7_30 
REMARK    4  A    between atoms: C8_27  and  O7_30 
ROOT
HETATM    1  O7    D T 400       6.263   3.034  -7.462  1.00 53.30    -0.304 OA
ENDROOT
BRANCH   1   2
HETATM    2  C5    D T 400       6.553   2.589  -8.741  1.00 52.25     0.125 A 
HETATM    3  C6    D T 400       5.660   2.944  -9.809  1.00 52.67     0.154 A 
HETATM    4  C1    D T 400       5.955   2.467 -11.084  1.00 56.55     0.041 A 
HETATM    5  O17   D T 400       4.586   3.705  -9.610  1.00 49.90    -0.188 OA
HETATM    6  C2    D T 400       7.077   1.658 -11.285  1.00 54.31     0.060 A 
HETATM    7  C3    D T 400       7.944   1.319 -10.229  1.00 52.92     0.014 A 
HETATM    8 CL14   D T 400       7.376   1.062 -12.884  1.00 55.46    -0.082 Cl
HETATM    9  C4    D T 400       7.656   1.784  -8.957  1.00 50.04     0.028 A 
ENDBRANCH   1   2
BRANCH   1  10
HETATM   10  C8    D T 400       5.521   2.198  -6.548  1.00 54.37     0.111 A 
HETATM   11  C9    D T 400       6.200   1.765  -5.360  1.00 54.35     0.081 A 
HETATM   12  C10   D T 400       5.678   0.982  -4.358  1.00 53.50     0.025 A 
HETATM   13 CL16   D T 400       7.809   2.276  -5.170  1.00 64.25    -0.080 Cl
HETATM   14  C11   D T 400       4.330   0.564  -4.515  1.00 57.87     0.059 A 
HETATM   15  C12   D T 400       3.604   0.976  -5.661  1.00 58.16     0.013 A 
HETATM   16 CL15   D T 400       3.512  -0.437  -3.372  1.00 56.65    -0.082 Cl
HETATM   17  C13   D T 400       4.196   1.780  -6.689  1.00 55.40     0.026 A 
ENDBRANCH   1  10
TORSDOF 4
ENDMDL
MODEL 6
REMARK VINA RESULT:    -7.280      1.942      2.102
REMARK INTER + INTRA:          -8.460
REMARK INTER:                  -7.952
REMARK INTRA:                  -0.509
REMARK UNBOUND:                -0.329
REMARK  4 active torsions:
REMARK  status: ('A' for Active; 'I' for Inactive)
REMARK    1  A    between atoms: C5_4  and  O7_13 
REMARK    2  A    between atoms: C8_10  and  O7_13 
REMARK    3  A    between atoms: C5_21  and  O7_30 
REMARK    4  A    between atoms: C8_27  and  O7_30 
ROOT
HETATM    1  O7    D T 400       4.072   1.635  -7.301  1.00 53.30    -0.304 OA
ENDROOT
BRANCH   1   2
HETATM    2  C5    D T 400       5.046   1.367  -8.248  1.00 52.25     0.125 A 
HETATM    3  C6    D T 400       5.289   2.340  -9.276  1.00 52.67     0.154 A 
HETATM    4  C1    D T 400       6.255   2.041 -10.234  1.00 56.55     0.041 A 
HETATM    5  O17   D T 400       4.629   3.495  -9.328  1.00 49.90    -0.188 OA
HETATM    6  C2    D T 400       6.936   0.821 -10.184  1.00 54.31     0.060 A 
HETATM    7  C3    D T 400       6.688  -0.123  -9.169  1.00 52.92     0.014 A 
HETATM    8 CL14   D T 400       8.101   0.486 -11.421  1.00 55.46    -0.082 Cl
HETATM    9  C4    D T 400       5.726   0.163  -8.216  1.00 50.04     0.028 A 
ENDBRANCH   1   2
BRANCH   1  10
HETATM   10  C8    D T 400       4.433   2.188  -6.017  1.00 54.37     0.111 A 
HETATM   11  C9    D T 400       4.338   1.317  -4.881  1.00 54.35     0.081 A 
HETATM   12  C10   D T 400       4.644   1.634  -3.579  1.00 53.50     0.025 A 
HETATM   13 CL16   D T 400       3.797  -0.267  -5.174  1.00 64.25    -0.080 Cl
HETATM   14  C11   D T 400       5.104   2.955  -3.337  1.00 57.87     0.059 A 
HETATM   15  C12   D T 400       5.235   3.855  -4.426  1.00 58.16     0.013 A 
HETATM   16 CL15   D T 400       5.518   3.540  -1.767  1.00 56.65    -0.082 Cl
HETATM   17  C13   D T 400       4.888   3.484  -5.766  1.00 55.40     0.026 A 
ENDBRANCH   1  10
TORSDOF 4
ENDMDL
MODEL 7
REMARK VINA RESULT:    -7.019      2.021      6.152
REMARK INTER + INTRA:          -8.169
REMARK INTER:                  -7.660
REMARK INTRA:                  -0.509
REMARK UNBOUND:                -0.329
REMARK  4 active torsions:
REMARK  status: ('A' for Active; 'I' for Inactive)
REMARK    1  A    between atoms: C5_4  and  O7_13 
REMARK    2  A    between atoms: C8_10  and  O7_13 
REMARK    3  A    between atoms: C5_21  and  O7_30 
REMARK    4  A    between atoms: C8_27  and  O7_30 
ROOT
HETATM    1  O7    D T 400       5.983   0.870  -6.177  1.00 53.30    -0.304 OA
ENDROOT
BRANCH   1   2
HETATM    2  C5    D T 400       5.176   1.825  -5.582  1.00 52.25     0.125 A 
HETATM    3  C6    D T 400       3.828   1.466  -5.239  1.00 52.67     0.154 A 
HETATM    4  C1    D T 400       3.025   2.447  -4.663  1.00 56.55     0.041 A 
HETATM    5  O17   D T 400       3.346   0.244  -5.450  1.00 49.90    -0.188 OA
HETATM    6  C2    D T 400       3.532   3.734  -4.455  1.00 54.31     0.060 A 
HETATM    7  C3    D T 400       4.856   4.070  -4.795  1.00 52.92     0.014 A 
HETATM    8 CL14   D T 400       2.477   4.924  -3.770  1.00 55.46    -0.082 Cl
HETATM    9  C4    D T 400       5.660   3.103  -5.373  1.00 50.04     0.028 A 
ENDBRANCH   1   2
BRANCH   1  10
HETATM   10  C8    D T 400       6.177   0.865  -7.608  1.00 54.37     0.111 A 
HETATM   11  C9    D T 400       7.456   1.297  -8.096  1.00 54.35     0.081 A 
HETATM   12  C10   D T 400       7.853   1.356  -9.410  1.00 53.50     0.025 A 
HETATM   13 CL16   D T 400       8.596   1.778  -6.931  1.00 64.25    -0.080 Cl
HETATM   14  C11   D T 400       6.902   0.945 -10.381  1.00 57.87     0.059 A 
HETATM   15  C12   D T 400       5.627   0.492  -9.956  1.00 58.16     0.013 A 
HETATM   16 CL15   D T 400       7.213   0.968 -12.078  1.00 56.65    -0.082 Cl
HETATM   17  C13   D T 400       5.252   0.463  -8.573  1.00 55.40     0.026 A 
ENDBRANCH   1  10
TORSDOF 4
ENDMDL
MODEL 8
REMARK VINA RESULT:    -6.979      2.290      6.348
REMARK INTER + INTRA:          -8.124
REMARK INTER:                  -7.612
REMARK INTRA:                  -0.512
REMARK UNBOUND:                -0.329
REMARK  4 active torsions:
REMARK  status: ('A' for Active; 'I' for Inactive)
REMARK    1  A    between atoms: C5_4  and  O7_13 
REMARK    2  A    between atoms: C8_10  and  O7_13 
REMARK    3  A    between atoms: C5_21  and  O7_30 
REMARK    4  A    between atoms: C8_27  and  O7_30 
ROOT
HETATM    1  O7    D T 400       4.772   1.505  -5.469  1.00 53.30    -0.304 OA
ENDROOT
BRANCH   1   2
HETATM    2  C5    D T 400       4.653   2.800  -4.994  1.00 52.25     0.125 A 
HETATM    3  C6    D T 400       5.395   3.172  -3.822  1.00 52.67     0.154 A 
HETATM    4  C1    D T 400       5.243   4.472  -3.345  1.00 56.55     0.041 A 
HETATM    5  O17   D T 400       6.209   2.321  -3.200  1.00 49.90    -0.188 OA
HETATM    6  C2    D T 400       4.377   5.358  -3.994  1.00 54.31     0.060 A 
HETATM    7  C3    D T 400       3.657   4.980  -5.143  1.00 52.92     0.014 A 
HETATM    8 CL14   D T 400       4.199   6.951  -3.337  1.00 55.46    -0.082 Cl
HETATM    9  C4    D T 400       3.798   3.688  -5.621  1.00 50.04     0.028 A 
ENDBRANCH   1   2
BRANCH   1  10
HETATM   10  C8    D T 400       5.483   1.239  -6.696  1.00 54.37     0.111 A 
HETATM   11  C9    D T 400       4.769   0.542  -7.728  1.00 54.35     0.081 A 
HETATM   12  C10   D T 400       5.250   0.202  -8.969  1.00 53.50     0.025 A 
HETATM   13 CL16   D T 400       3.166   0.098  -7.382  1.00 64.25    -0.080 Cl
HETATM   14  C11   D T 400       6.587   0.582  -9.260  1.00 57.87     0.059 A 
HETATM   15  C12   D T 400       7.336   1.288  -8.284  1.00 58.16     0.013 A 
HETATM   16 CL15   D T 400       7.367   0.225 -10.757  1.00 56.65    -0.082 Cl
HETATM   17  C13   D T 400       6.797   1.607  -6.995  1.00 55.40     0.026 A 
ENDBRANCH   1  10
TORSDOF 4
ENDMDL
MODEL 9
REMARK VINA RESULT:    -6.806      2.629      6.370
REMARK INTER + INTRA:          -7.931
REMARK INTER:                  -7.417
REMARK INTRA:                  -0.514
REMARK UNBOUND:                -0.329
REMARK  4 active torsions:
REMARK  status: ('A' for Active; 'I' for Inactive)
REMARK    1  A    between atoms: C5_4  and  O7_13 
REMARK    2  A    between atoms: C8_10  and  O7_13 
REMARK    3  A    between atoms: C5_21  and  O7_30 
REMARK    4  A    between atoms: C8_27  and  O7_30 
ROOT
HETATM    1  O7    D T 400       3.653   2.180  -5.787  1.00 53.30    -0.304 OA
ENDROOT
BRANCH   1   2
HETATM    2  C5    D T 400       4.171   2.899  -4.723  1.00 52.25     0.125 A 
HETATM    3  C6    D T 400       3.987   4.324  -4.704  1.00 52.67     0.154 A 
HETATM    4  C1    D T 400       4.537   5.033  -3.638  1.00 56.55     0.041 A 
HETATM    5  O17   D T 400       3.317   4.964  -5.660  1.00 49.90    -0.188 OA
HETATM    6  C2    D T 400       5.252   4.358  -2.644  1.00 54.31     0.060 A 
HETATM    7  C3    D T 400       5.421   2.961  -2.674  1.00 52.92     0.014 A 
HETATM    8 CL14   D T 400       5.943   5.294  -1.361  1.00 55.46    -0.082 Cl
HETATM    9  C4    D T 400       4.884   2.249  -3.733  1.00 50.04     0.028 A 
ENDBRANCH   1   2
BRANCH   1  10
HETATM   10  C8    D T 400       4.494   1.818  -6.902  1.00 54.37     0.111 A 
HETATM   11  C9    D T 400       4.734   0.418  -7.112  1.00 54.35     0.081 A 
HETATM   12  C10   D T 400       5.488  -0.141  -8.116  1.00 53.50     0.025 A 
HETATM   13 CL16   D T 400       4.009  -0.655  -6.013  1.00 64.25    -0.080 Cl
HETATM   14  C11   D T 400       6.086   0.757  -9.039  1.00 57.87     0.059 A 
HETATM   15  C12   D T 400       5.869   2.151  -8.891  1.00 58.16     0.013 A 
HETATM   16 CL15   D T 400       7.081   0.242 -10.351  1.00 56.65    -0.082 Cl
HETATM   17  C13   D T 400       5.087   2.690  -7.817  1.00 55.40     0.026 A 
ENDBRANCH   1  10
TORSDOF 4
ENDMDL
