MODEL 1
REMARK VINA RESULT:    -9.242      0.000      0.000
REMARK INTER + INTRA:         -10.978
REMARK INTER:                 -10.863
REMARK INTRA:                  -0.114
REMARK UNBOUND:                -0.114
REMARK  3 active torsions:
REMARK  status: ('A' for Active; 'I' for Inactive)
REMARK    1  A    between atoms: C4_6  and  C5_7 
REMARK    2  A    between atoms: C5_7  and  C6_8 
REMARK    3  A    between atoms: C5_7  and  C12_16 
ROOT
HETATM    1  C12   D T 441       7.997  -6.853   3.090  1.00 19.85     0.021 A 
HETATM    2  C13   D T 441       8.255  -6.710   4.484  1.00 19.83    -0.000 A 
HETATM    3  C14   D T 441       7.374  -7.261   5.455  1.00 20.16     0.016 A 
HETATM    4  C15   D T 441       6.857  -7.594   2.684  1.00 20.41    -0.000 A 
HETATM    5  C16   D T 441       5.981  -8.139   3.636  1.00 20.73     0.017 A 
HETATM    6  C17   D T 441       6.220  -7.970   5.017  1.00 21.09     0.062 A 
HETATM    7  N4    D T 441       5.278  -8.454   5.981  1.00 20.91    -0.294 N 
HETATM    8  C18   D T 441       4.065  -9.209   5.552  1.00 20.23     0.134 C 
HETATM    9  C19   D T 441       5.491  -8.225   7.358  1.00 22.47     0.261 A 
HETATM   10  O1    D T 441       4.658  -8.597   8.185  1.00 22.92    -0.267 OA
HETATM   11  C20   D T 441       6.635  -7.543   7.784  1.00 22.04     0.061 A 
HETATM   12  C21   D T 441       7.589  -7.066   6.859  1.00 20.64     0.006 A 
HETATM   13  C22   D T 441       8.781  -6.491   7.372  1.00 21.65     0.001 A 
HETATM   14  C23   D T 441       9.156  -5.163   7.060  1.00 20.99     0.011 A 
HETATM   15  C24   D T 441      10.321  -4.610   7.635  1.00 22.35     0.058 A 
HETATM   16 CL2    D T 441      10.786  -2.941   7.271  1.00 26.30    -0.082 Cl
HETATM   17  C25   D T 441      11.114  -5.368   8.515  1.00 21.98     0.011 A 
HETATM   18  C26   D T 441      10.747  -6.686   8.827  1.00 20.12     0.001 A 
HETATM   19  C27   D T 441       9.588  -7.244   8.260  1.00 21.15     0.000 A 
ENDROOT
BRANCH   1  20
HETATM   20  C5    D T 441       8.759  -6.124   2.103  1.00 20.67     0.342 C 
HETATM   21  N3    D T 441       9.132  -4.879   2.804  1.00 22.80     0.629 N 
BRANCH  20  22
HETATM   22  C4    D T 441      10.022  -6.737   1.743  1.00 19.37     0.100 A 
HETATM   23  N1    D T 441      11.038  -6.082   1.213  1.00 19.33    -0.308 N 
HETATM   24  C1    D T 441      11.141  -4.625   0.942  1.00 19.43     0.132 C 
HETATM   25  C2    D T 441      11.979  -6.983   0.937  1.00 17.45     0.178 A 
HETATM   26  N2    D T 441      11.499  -8.196   1.316  1.00 18.66    -0.223 NA
HETATM   27  C3    D T 441      10.260  -8.040   1.826  1.00 16.78     0.116 A 
ENDBRANCH  20  22
BRANCH  20  28
HETATM   28  C6    D T 441       7.999  -5.724   0.955  1.00 20.70     0.021 A 
HETATM   29  C7    D T 441       7.413  -4.435   0.907  1.00 21.08    -0.001 A 
HETATM   30  C8    D T 441       6.717  -4.008  -0.232  1.00 21.56     0.011 A 
HETATM   31  C9    D T 441       6.590  -4.856  -1.341  1.00 22.96     0.058 A 
HETATM   32 CL1    D T 441       5.740  -4.275  -2.792  1.00 26.89    -0.082 Cl
HETATM   33  C10   D T 441       7.161  -6.146  -1.312  1.00 22.08     0.011 A 
HETATM   34  C11   D T 441       7.865  -6.581  -0.166  1.00 21.58    -0.001 A 
ENDBRANCH  20  28
ENDBRANCH   1  20
TORSDOF 3
ENDMDL
MODEL 2
REMARK VINA RESULT:    -9.009      2.419      4.846
REMARK INTER + INTRA:         -10.704
REMARK INTER:                 -10.382
REMARK INTRA:                  -0.321
REMARK UNBOUND:                -0.114
REMARK  3 active torsions:
REMARK  status: ('A' for Active; 'I' for Inactive)
REMARK    1  A    between atoms: C4_6  and  C5_7 
REMARK    2  A    between atoms: C5_7  and  C6_8 
REMARK    3  A    between atoms: C5_7  and  C12_16 
ROOT
HETATM    1  C12   D T 441       8.153  -6.609   3.844  1.00 19.85     0.021 A 
HETATM    2  C13   D T 441       6.986  -7.384   3.580  1.00 19.83    -0.000 A 
HETATM    3  C14   D T 441       6.246  -7.982   4.636  1.00 20.16     0.016 A 
HETATM    4  C15   D T 441       8.544  -6.413   5.194  1.00 20.41    -0.000 A 
HETATM    5  C16   D T 441       7.821  -7.002   6.243  1.00 20.73     0.017 A 
HETATM    6  C17   D T 441       6.683  -7.794   5.978  1.00 21.09     0.062 A 
HETATM    7  N4    D T 441       6.000  -8.462   7.045  1.00 20.91    -0.294 N 
HETATM    8  C18   D T 441       6.429  -8.276   8.462  1.00 20.23     0.134 C 
HETATM    9  C19   D T 441       4.902  -9.305   6.767  1.00 22.47     0.261 A 
HETATM   10  O1    D T 441       4.344  -9.918   7.677  1.00 22.92    -0.267 OA
HETATM   11  C20   D T 441       4.466  -9.473   5.449  1.00 22.04     0.061 A 
HETATM   12  C21   D T 441       5.110  -8.817   4.377  1.00 20.64     0.006 A 
HETATM   13  C22   D T 441       4.536  -8.939   3.084  1.00 21.65     0.001 A 
HETATM   14  C23   D T 441       5.267  -9.478   1.998  1.00 20.99     0.011 A 
HETATM   15  C24   D T 441       4.643  -9.634   0.742  1.00 22.35     0.058 A 
HETATM   16 CL2    D T 441       5.540 -10.330  -0.616  1.00 26.30    -0.082 Cl
HETATM   17  C25   D T 441       3.300  -9.256   0.558  1.00 21.98     0.011 A 
HETATM   18  C26   D T 441       2.572  -8.720   1.630  1.00 20.12     0.001 A 
HETATM   19  C27   D T 441       3.185  -8.563   2.885  1.00 21.15     0.000 A 
ENDROOT
BRANCH   1  20
HETATM   20  C5    D T 441       9.030  -6.178   2.780  1.00 20.67     0.342 C 
HETATM   21  N3    D T 441       9.678  -4.971   3.332  1.00 22.80     0.629 N 
BRANCH  20  22
HETATM   22  C4    D T 441      10.123  -7.086   2.495  1.00 19.37     0.100 A 
HETATM   23  N1    D T 441      11.193  -6.758   1.795  1.00 19.33    -0.308 N 
HETATM   24  C1    D T 441      11.540  -5.429   1.228  1.00 19.43     0.132 C 
HETATM   25  C2    D T 441      11.926  -7.863   1.666  1.00 17.45     0.178 A 
HETATM   26  N2    D T 441      11.263  -8.862   2.306  1.00 18.66    -0.223 NA
HETATM   27  C3    D T 441      10.123  -8.370   2.830  1.00 16.78     0.116 A 
ENDBRANCH  20  22
BRANCH  20  28
HETATM   28  C6    D T 441       8.345  -5.757   1.593  1.00 20.70     0.021 A 
HETATM   29  C7    D T 441       7.903  -6.720   0.651  1.00 21.08    -0.001 A 
HETATM   30  C8    D T 441       7.181  -6.330  -0.485  1.00 21.56     0.011 A 
HETATM   31  C9    D T 441       6.886  -4.976  -0.703  1.00 22.96     0.058 A 
HETATM   32 CL1    D T 441       5.929  -4.510  -2.129  1.00 26.89    -0.082 Cl
HETATM   33  C10   D T 441       7.321  -4.001   0.219  1.00 22.08     0.011 A 
HETATM   34  C11   D T 441       8.049  -4.390   1.366  1.00 21.58    -0.001 A 
ENDBRANCH  20  28
ENDBRANCH   1  20
TORSDOF 3
ENDMDL
MODEL 3
REMARK VINA RESULT:    -8.918      3.547      7.031
REMARK INTER + INTRA:         -10.597
REMARK INTER:                 -10.927
REMARK INTRA:                   0.330
REMARK UNBOUND:                -0.114
REMARK  3 active torsions:
REMARK  status: ('A' for Active; 'I' for Inactive)
REMARK    1  A    between atoms: C4_6  and  C5_7 
REMARK    2  A    between atoms: C5_7  and  C6_8 
REMARK    3  A    between atoms: C5_7  and  C12_16 
ROOT
HETATM    1  C12   D T 441       5.169  -8.202   2.322  1.00 19.85     0.021 A 
HETATM    2  C13   D T 441       6.173  -7.422   1.677  1.00 19.83    -0.000 A 
HETATM    3  C14   D T 441       5.984  -6.924   0.360  1.00 20.16     0.016 A 
HETATM    4  C15   D T 441       3.952  -8.441   1.634  1.00 20.41    -0.000 A 
HETATM    5  C16   D T 441       3.757  -7.954   0.331  1.00 20.73     0.017 A 
HETATM    6  C17   D T 441       4.765  -7.208  -0.318  1.00 21.09     0.062 A 
HETATM    7  N4    D T 441       4.594  -6.789  -1.677  1.00 20.91    -0.294 N 
HETATM    8  C18   D T 441       3.323  -7.065  -2.408  1.00 20.23     0.134 C 
HETATM    9  C19   D T 441       5.632  -6.099  -2.341  1.00 22.47     0.261 A 
HETATM   10  O1    D T 441       5.506  -5.781  -3.524  1.00 22.92    -0.267 OA
HETATM   11  C20   D T 441       6.821  -5.806  -1.666  1.00 22.04     0.061 A 
HETATM   12  C21   D T 441       7.013  -6.195  -0.322  1.00 20.64     0.006 A 
HETATM   13  C22   D T 441       8.194  -5.757   0.332  1.00 21.65     0.001 A 
HETATM   14  C23   D T 441       9.116  -6.676   0.888  1.00 20.99     0.011 A 
HETATM   15  C24   D T 441      10.306  -6.202   1.481  1.00 22.35     0.058 A 
HETATM   16 CL2    D T 441      11.478  -7.344   2.157  1.00 26.30    -0.082 Cl
HETATM   17  C25   D T 441      10.584  -4.823   1.528  1.00 21.98     0.011 A 
HETATM   18  C26   D T 441       9.672  -3.909   0.980  1.00 20.12     0.001 A 
HETATM   19  C27   D T 441       8.486  -4.372   0.385  1.00 21.15     0.000 A 
ENDROOT
BRANCH   1  20
HETATM   20  C5    D T 441       5.430  -8.889   3.565  1.00 20.67     0.342 C 
HETATM   21  N3    D T 441       4.108  -8.932   4.222  1.00 22.80     0.629 N 
BRANCH  20  22
HETATM   22  C4    D T 441       5.813 -10.279   3.416  1.00 19.37     0.100 A 
HETATM   23  N1    D T 441       6.974 -10.679   2.932  1.00 19.33    -0.308 N 
HETATM   24  C1    D T 441       8.126  -9.839   2.517  1.00 19.43     0.132 C 
HETATM   25  C2    D T 441       6.928 -12.009   2.861  1.00 17.45     0.178 A 
HETATM   26  N2    D T 441       5.706 -12.394   3.315  1.00 18.66    -0.223 NA
HETATM   27  C3    D T 441       5.001 -11.299   3.666  1.00 16.78     0.116 A 
ENDBRANCH  20  22
BRANCH  20  28
HETATM   28  C6    D T 441       6.297  -8.176   4.456  1.00 20.70     0.021 A 
HETATM   29  C7    D T 441       7.230  -7.242   3.941  1.00 21.08    -0.001 A 
HETATM   30  C8    D T 441       8.044  -6.494   4.803  1.00 21.56     0.011 A 
HETATM   31  C9    D T 441       7.945  -6.664   6.191  1.00 22.96     0.058 A 
HETATM   32 CL1    D T 441       8.956  -5.671   7.267  1.00 26.89    -0.082 Cl
HETATM   33  C10   D T 441       7.027  -7.593   6.726  1.00 22.08     0.011 A 
HETATM   34  C11   D T 441       6.203  -8.348   5.861  1.00 21.58    -0.001 A 
ENDBRANCH  20  28
ENDBRANCH   1  20
TORSDOF 3
ENDMDL
MODEL 4
REMARK VINA RESULT:    -8.800      3.113      6.558
REMARK INTER + INTRA:         -10.457
REMARK INTER:                 -10.780
REMARK INTRA:                   0.322
REMARK UNBOUND:                -0.114
REMARK  3 active torsions:
REMARK  status: ('A' for Active; 'I' for Inactive)
REMARK    1  A    between atoms: C4_6  and  C5_7 
REMARK    2  A    between atoms: C5_7  and  C6_8 
REMARK    3  A    between atoms: C5_7  and  C12_16 
ROOT
HETATM    1  C12   D T 441       5.905  -8.408   4.234  1.00 19.85     0.021 A 
HETATM    2  C13   D T 441       6.358  -7.618   3.138  1.00 19.83    -0.000 A 
HETATM    3  C14   D T 441       5.750  -7.722   1.857  1.00 20.16     0.016 A 
HETATM    4  C15   D T 441       4.804  -9.279   4.033  1.00 20.41    -0.000 A 
HETATM    5  C16   D T 441       4.199  -9.390   2.771  1.00 20.73     0.017 A 
HETATM    6  C17   D T 441       4.668  -8.629   1.677  1.00 21.09     0.062 A 
HETATM    7  N4    D T 441       4.103  -8.810   0.374  1.00 20.91    -0.294 N 
HETATM    8  C18   D T 441       2.962  -9.746   0.158  1.00 20.23     0.134 C 
HETATM    9  C19   D T 441       4.619  -8.093  -0.728  1.00 22.47     0.261 A 
HETATM   10  O1    D T 441       4.168  -8.283  -1.858  1.00 22.92    -0.267 OA
HETATM   11  C20   D T 441       5.671  -7.190  -0.544  1.00 22.04     0.061 A 
HETATM   12  C21   D T 441       6.239  -6.981   0.732  1.00 20.64     0.006 A 
HETATM   13  C22   D T 441       7.219  -5.962   0.862  1.00 21.65     0.001 A 
HETATM   14  C23   D T 441       8.524  -6.245   1.331  1.00 20.99     0.011 A 
HETATM   15  C24   D T 441       9.486  -5.213   1.393  1.00 22.35     0.058 A 
HETATM   16 CL2    D T 441      11.128  -5.562   1.955  1.00 26.30    -0.082 Cl
HETATM   17  C25   D T 441       9.158  -3.904   0.995  1.00 21.98     0.011 A 
HETATM   18  C26   D T 441       7.866  -3.618   0.531  1.00 20.12     0.001 A 
HETATM   19  C27   D T 441       6.903  -4.639   0.463  1.00 21.15     0.000 A 
ENDROOT
BRANCH   1  20
HETATM   20  C5    D T 441       6.644  -8.471   5.474  1.00 20.67     0.342 C 
HETATM   21  N3    D T 441       5.590  -8.443   6.508  1.00 22.80     0.629 N 
BRANCH  20  22
HETATM   22  C4    D T 441       7.344  -9.721   5.696  1.00 19.37     0.100 A 
HETATM   23  N1    D T 441       8.189 -10.257   4.837  1.00 19.33    -0.308 N 
HETATM   24  C1    D T 441       8.652  -9.697   3.541  1.00 19.43     0.132 C 
HETATM   25  C2    D T 441       8.558 -11.435   5.339  1.00 17.45     0.178 A 
HETATM   26  N2    D T 441       7.908 -11.590   6.522  1.00 18.66    -0.223 NA
HETATM   27  C3    D T 441       7.139 -10.504   6.748  1.00 16.78     0.116 A 
ENDBRANCH  20  22
BRANCH  20  28
HETATM   28  C6    D T 441       7.475  -7.329   5.718  1.00 20.70     0.021 A 
HETATM   29  C7    D T 441       7.692  -6.880   7.045  1.00 21.08    -0.001 A 
HETATM   30  C8    D T 441       8.548  -5.801   7.304  1.00 21.56     0.011 A 
HETATM   31  C9    D T 441       9.201  -5.150   6.249  1.00 22.96     0.058 A 
HETATM   32 CL1    D T 441      10.318  -3.812   6.606  1.00 26.89    -0.082 Cl
HETATM   33  C10   D T 441       8.996  -5.576   4.920  1.00 22.08     0.011 A 
HETATM   34  C11   D T 441       8.134  -6.664   4.653  1.00 21.58    -0.001 A 
ENDBRANCH  20  28
ENDBRANCH   1  20
TORSDOF 3
ENDMDL
MODEL 5
REMARK VINA RESULT:    -8.735      3.463      5.951
REMARK INTER + INTRA:         -10.381
REMARK INTER:                 -10.263
REMARK INTRA:                  -0.118
REMARK UNBOUND:                -0.114
REMARK  3 active torsions:
REMARK  status: ('A' for Active; 'I' for Inactive)
REMARK    1  A    between atoms: C4_6  and  C5_7 
REMARK    2  A    between atoms: C5_7  and  C6_8 
REMARK    3  A    between atoms: C5_7  and  C12_16 
ROOT
HETATM    1  C12   D T 441       6.323  -8.577   3.908  1.00 19.85     0.021 A 
HETATM    2  C13   D T 441       7.251  -7.526   3.647  1.00 19.83    -0.000 A 
HETATM    3  C14   D T 441       7.888  -6.828   4.709  1.00 20.16     0.016 A 
HETATM    4  C15   D T 441       6.074  -8.941   5.256  1.00 20.41    -0.000 A 
HETATM    5  C16   D T 441       6.697  -8.255   6.311  1.00 20.73     0.017 A 
HETATM    6  C17   D T 441       7.592  -7.194   6.052  1.00 21.09     0.062 A 
HETATM    7  N4    D T 441       8.158  -6.444   7.133  1.00 20.91    -0.294 N 
HETATM    8  C18   D T 441       7.874  -6.811   8.550  1.00 20.23     0.134 C 
HETATM    9  C19   D T 441       9.002  -5.343   6.866  1.00 22.47     0.261 A 
HETATM   10  O1    D T 441       9.450  -4.666   7.792  1.00 22.92    -0.267 OA
HETATM   11  C20   D T 441       9.303  -4.997   5.544  1.00 22.04     0.061 A 
HETATM   12  C21   D T 441       8.772  -5.727   4.459  1.00 20.64     0.006 A 
HETATM   13  C22   D T 441       9.219  -5.394   3.154  1.00 21.65     0.001 A 
HETATM   14  C23   D T 441       8.315  -4.988   2.143  1.00 20.99     0.011 A 
HETATM   15  C24   D T 441       8.805  -4.611   0.874  1.00 22.35     0.058 A 
HETATM   16 CL2    D T 441       7.686  -4.077  -0.389  1.00 26.30    -0.082 Cl
HETATM   17  C25   D T 441      10.186  -4.638   0.603  1.00 21.98     0.011 A 
HETATM   18  C26   D T 441      11.086  -5.041   1.601  1.00 20.12     0.001 A 
HETATM   19  C27   D T 441      10.606  -5.416   2.868  1.00 21.15     0.000 A 
ENDROOT
BRANCH   1  20
HETATM   20  C5    D T 441       5.513  -9.146   2.856  1.00 20.67     0.342 C 
HETATM   21  N3    D T 441       4.144  -9.096   3.407  1.00 22.80     0.629 N 
BRANCH  20  22
HETATM   22  C4    D T 441       5.452  -8.351   1.646  1.00 19.37     0.100 A 
HETATM   23  N1    D T 441       6.403  -8.322   0.731  1.00 19.33    -0.308 N 
HETATM   24  C1    D T 441       7.660  -9.114   0.697  1.00 19.43     0.132 C 
HETATM   25  C2    D T 441       6.039  -7.420  -0.179  1.00 17.45     0.178 A 
HETATM   26  N2    D T 441       4.844  -6.908   0.217  1.00 18.66    -0.223 NA
HETATM   27  C3    D T 441       4.473  -7.498   1.372  1.00 16.78     0.116 A 
ENDBRANCH  20  22
BRANCH  20  28
HETATM   28  C6    D T 441       5.788 -10.527   2.590  1.00 20.70     0.021 A 
HETATM   29  C7    D T 441       4.914 -11.277   1.764  1.00 21.08    -0.001 A 
HETATM   30  C8    D T 441       5.199 -12.612   1.446  1.00 21.56     0.011 A 
HETATM   31  C9    D T 441       6.358 -13.224   1.945  1.00 22.96     0.058 A 
HETATM   32 CL1    D T 441       6.722 -14.905   1.492  1.00 26.89    -0.082 Cl
HETATM   33  C10   D T 441       7.239 -12.498   2.773  1.00 22.08     0.011 A 
HETATM   34  C11   D T 441       6.956 -11.151   3.096  1.00 21.58    -0.001 A 
ENDBRANCH  20  28
ENDBRANCH   1  20
TORSDOF 3
ENDMDL
MODEL 6
REMARK VINA RESULT:    -8.396      2.611      4.595
REMARK INTER + INTRA:          -9.983
REMARK INTER:                  -9.811
REMARK INTRA:                  -0.172
REMARK UNBOUND:                -0.114
REMARK  3 active torsions:
REMARK  status: ('A' for Active; 'I' for Inactive)
REMARK    1  A    between atoms: C4_6  and  C5_7 
REMARK    2  A    between atoms: C5_7  and  C6_8 
REMARK    3  A    between atoms: C5_7  and  C12_16 
ROOT
HETATM    1  C12   D T 441       8.811  -6.353   2.377  1.00 19.85     0.021 A 
HETATM    2  C13   D T 441       8.027  -7.060   3.336  1.00 19.83    -0.000 A 
HETATM    3  C14   D T 441       8.070  -6.719   4.715  1.00 20.16     0.016 A 
HETATM    4  C15   D T 441       9.609  -5.269   2.822  1.00 20.41    -0.000 A 
HETATM    5  C16   D T 441       9.658  -4.926   4.183  1.00 20.73     0.017 A 
HETATM    6  C17   D T 441       8.906  -5.647   5.136  1.00 21.09     0.062 A 
HETATM    7  N4    D T 441       9.027  -5.347   6.531  1.00 20.91    -0.294 N 
HETATM    8  C18   D T 441       9.889  -4.224   7.000  1.00 20.23     0.134 C 
HETATM    9  C19   D T 441       8.322  -6.115   7.484  1.00 22.47     0.261 A 
HETATM   10  O1    D T 441       8.462  -5.890   8.687  1.00 22.92    -0.267 OA
HETATM   11  C20   D T 441       7.487  -7.155   7.065  1.00 22.04     0.061 A 
HETATM   12  C21   D T 441       7.337  -7.465   5.695  1.00 20.64     0.006 A 
HETATM   13  C22   D T 441       6.382  -8.453   5.340  1.00 21.65     0.001 A 
HETATM   14  C23   D T 441       6.752  -9.619   4.628  1.00 20.99     0.011 A 
HETATM   15  C24   D T 441       5.782 -10.604   4.342  1.00 22.35     0.058 A 
HETATM   16 CL2    D T 441       6.240 -12.077   3.474  1.00 26.30    -0.082 Cl
HETATM   17  C25   D T 441       4.448 -10.436   4.756  1.00 21.98     0.011 A 
HETATM   18  C26   D T 441       4.076  -9.282   5.461  1.00 20.12     0.001 A 
HETATM   19  C27   D T 441       5.035  -8.297   5.752  1.00 21.15     0.000 A 
ENDROOT
BRANCH   1  20
HETATM   20  C5    D T 441       8.942  -6.822   1.017  1.00 20.67     0.342 C 
HETATM   21  N3    D T 441      10.351  -6.533   0.685  1.00 22.80     0.629 N 
BRANCH  20  22
HETATM   22  C4    D T 441       8.814  -8.257   0.859  1.00 19.37     0.100 A 
HETATM   23  N1    D T 441       7.660  -8.897   0.826  1.00 19.33    -0.308 N 
HETATM   24  C1    D T 441       6.293  -8.316   0.866  1.00 19.43     0.132 C 
HETATM   25  C2    D T 441       7.939 -10.198   0.763  1.00 17.45     0.178 A 
HETATM   26  N2    D T 441       9.293 -10.320   0.763  1.00 18.66    -0.223 NA
HETATM   27  C3    D T 441       9.846  -9.091   0.824  1.00 16.78     0.116 A 
ENDBRANCH  20  22
BRANCH  20  28
HETATM   28  C6    D T 441       8.150  -6.095   0.069  1.00 20.70     0.021 A 
HETATM   29  C7    D T 441       8.326  -6.317  -1.320  1.00 21.08    -0.001 A 
HETATM   30  C8    D T 441       7.520  -5.657  -2.258  1.00 21.56     0.011 A 
HETATM   31  C9    D T 441       6.525  -4.766  -1.830  1.00 22.96     0.058 A 
HETATM   32 CL1    D T 441       5.484  -3.975  -3.036  1.00 26.89    -0.082 Cl
HETATM   33  C10   D T 441       6.336  -4.527  -0.453  1.00 22.08     0.011 A 
HETATM   34  C11   D T 441       7.146  -5.191   0.497  1.00 21.58    -0.001 A 
ENDBRANCH  20  28
ENDBRANCH   1  20
TORSDOF 3
ENDMDL
MODEL 7
REMARK VINA RESULT:    -8.364      2.606      4.337
REMARK INTER + INTRA:          -9.945
REMARK INTER:                  -9.590
REMARK INTRA:                  -0.355
REMARK UNBOUND:                -0.114
REMARK  3 active torsions:
REMARK  status: ('A' for Active; 'I' for Inactive)
REMARK    1  A    between atoms: C4_6  and  C5_7 
REMARK    2  A    between atoms: C5_7  and  C6_8 
REMARK    3  A    between atoms: C5_7  and  C12_16 
ROOT
HETATM    1  C12   D T 441       8.681  -5.897   3.356  1.00 19.85     0.021 A 
HETATM    2  C13   D T 441       7.847  -6.762   4.124  1.00 19.83    -0.000 A 
HETATM    3  C14   D T 441       7.858  -6.722   5.544  1.00 20.16     0.016 A 
HETATM    4  C15   D T 441       9.499  -4.962   4.041  1.00 20.41    -0.000 A 
HETATM    5  C16   D T 441       9.517  -4.917   5.444  1.00 20.73     0.017 A 
HETATM    6  C17   D T 441       8.714  -5.796   6.204  1.00 21.09     0.062 A 
HETATM    7  N4    D T 441       8.802  -5.804   7.633  1.00 20.91    -0.294 N 
HETATM    8  C18   D T 441       9.683  -4.838   8.351  1.00 20.23     0.134 C 
HETATM    9  C19   D T 441       8.043  -6.729   8.384  1.00 22.47     0.261 A 
HETATM   10  O1    D T 441       8.153  -6.771   9.610  1.00 22.92    -0.267 OA
HETATM   11  C20   D T 441       7.190  -7.626   7.733  1.00 22.04     0.061 A 
HETATM   12  C21   D T 441       7.073  -7.632   6.326  1.00 20.64     0.006 A 
HETATM   13  C22   D T 441       6.099  -8.486   5.746  1.00 21.65     0.001 A 
HETATM   14  C23   D T 441       6.454  -9.487   4.811  1.00 20.99     0.011 A 
HETATM   15  C24   D T 441       5.463 -10.352   4.299  1.00 22.35     0.058 A 
HETATM   16 CL2    D T 441       5.902 -11.623   3.147  1.00 26.30    -0.082 Cl
HETATM   17  C25   D T 441       4.123 -10.227   4.708  1.00 21.98     0.011 A 
HETATM   18  C26   D T 441       3.765  -9.236   5.634  1.00 20.12     0.001 A 
HETATM   19  C27   D T 441       4.745  -8.371   6.150  1.00 21.15     0.000 A 
ENDROOT
BRANCH   1  20
HETATM   20  C5    D T 441       8.840  -6.071   1.931  1.00 20.67     0.342 C 
HETATM   21  N3    D T 441       9.032  -4.694   1.433  1.00 22.80     0.629 N 
BRANCH  20  22
HETATM   22  C4    D T 441      10.045  -6.775   1.540  1.00 19.37     0.100 A 
HETATM   23  N1    D T 441      10.572  -6.725   0.331  1.00 19.33    -0.308 N 
HETATM   24  C1    D T 441      10.115  -5.918  -0.830  1.00 19.43     0.132 C 
HETATM   25  C2    D T 441      11.608  -7.562   0.325  1.00 17.45     0.178 A 
HETATM   26  N2    D T 441      11.686  -8.116   1.563  1.00 18.66    -0.223 NA
HETATM   27  C3    D T 441      10.696  -7.618   2.332  1.00 16.78     0.116 A 
ENDBRANCH  20  22
BRANCH  20  28
HETATM   28  C6    D T 441       7.673  -6.576   1.270  1.00 20.70     0.021 A 
HETATM   29  C7    D T 441       6.744  -5.679   0.687  1.00 21.08    -0.001 A 
HETATM   30  C8    D T 441       5.628  -6.159  -0.013  1.00 21.56     0.011 A 
HETATM   31  C9    D T 441       5.417  -7.538  -0.143  1.00 22.96     0.058 A 
HETATM   32 CL1    D T 441       4.019  -8.124  -1.074  1.00 26.89    -0.082 Cl
HETATM   33  C10   D T 441       6.326  -8.450   0.434  1.00 22.08     0.011 A 
HETATM   34  C11   D T 441       7.453  -7.971   1.140  1.00 21.58    -0.001 A 
ENDBRANCH  20  28
ENDBRANCH   1  20
TORSDOF 3
ENDMDL
MODEL 8
REMARK VINA RESULT:    -8.331      2.949      5.430
REMARK INTER + INTRA:          -9.906
REMARK INTER:                  -9.993
REMARK INTRA:                   0.087
REMARK UNBOUND:                -0.114
REMARK  3 active torsions:
REMARK  status: ('A' for Active; 'I' for Inactive)
REMARK    1  A    between atoms: C4_6  and  C5_7 
REMARK    2  A    between atoms: C5_7  and  C6_8 
REMARK    3  A    between atoms: C5_7  and  C12_16 
ROOT
HETATM    1  C12   D T 441       7.452  -8.944   4.362  1.00 19.85     0.021 A 
HETATM    2  C13   D T 441       8.158  -7.742   4.060  1.00 19.83    -0.000 A 
HETATM    3  C14   D T 441       8.550  -6.843   5.089  1.00 20.16     0.016 A 
HETATM    4  C15   D T 441       7.181  -9.247   5.720  1.00 20.41    -0.000 A 
HETATM    5  C16   D T 441       7.562  -8.363   6.742  1.00 20.73     0.017 A 
HETATM    6  C17   D T 441       8.234  -7.158   6.440  1.00 21.09     0.062 A 
HETATM    7  N4    D T 441       8.544  -6.222   7.479  1.00 20.91    -0.294 N 
HETATM    8  C18   D T 441       8.233  -6.530   8.905  1.00 20.23     0.134 C 
HETATM    9  C19   D T 441       9.157  -4.990   7.161  1.00 22.47     0.261 A 
HETATM   10  O1    D T 441       9.381  -4.163   8.046  1.00 22.92    -0.267 OA
HETATM   11  C20   D T 441       9.482  -4.691   5.834  1.00 22.04     0.061 A 
HETATM   12  C21   D T 441       9.201  -5.601   4.791  1.00 20.64     0.006 A 
HETATM   13  C22   D T 441       9.669  -5.281   3.490  1.00 21.65     0.001 A 
HETATM   14  C23   D T 441       8.782  -5.159   2.394  1.00 20.99     0.011 A 
HETATM   15  C24   D T 441       9.280  -4.785   1.127  1.00 22.35     0.058 A 
HETATM   16 CL2    D T 441       8.175  -4.605  -0.245  1.00 26.30    -0.082 Cl
HETATM   17  C25   D T 441      10.652  -4.536   0.942  1.00 21.98     0.011 A 
HETATM   18  C26   D T 441      11.536  -4.657   2.024  1.00 20.12     0.001 A 
HETATM   19  C27   D T 441      11.048  -5.027   3.290  1.00 21.15     0.000 A 
ENDROOT
BRANCH   1  20
HETATM   20  C5    D T 441       6.864  -9.754   3.320  1.00 20.67     0.342 C 
HETATM   21  N3    D T 441       8.005 -10.535   2.803  1.00 22.80     0.629 N 
BRANCH  20  22
HETATM   22  C4    D T 441       5.921 -10.749   3.792  1.00 19.37     0.100 A 
HETATM   23  N1    D T 441       4.710 -10.468   4.235  1.00 19.33    -0.308 N 
HETATM   24  C1    D T 441       4.040  -9.143   4.283  1.00 19.43     0.132 C 
HETATM   25  C2    D T 441       4.178 -11.613   4.662  1.00 17.45     0.178 A 
HETATM   26  N2    D T 441       5.105 -12.587   4.464  1.00 18.66    -0.223 NA
HETATM   27  C3    D T 441       6.208 -12.039   3.913  1.00 16.78     0.116 A 
ENDBRANCH  20  22
BRANCH  20  28
HETATM   28  C6    D T 441       6.356  -9.002   2.211  1.00 20.70     0.021 A 
HETATM   29  C7    D T 441       6.102  -7.615   2.352  1.00 21.08    -0.001 A 
HETATM   30  C8    D T 441       5.661  -6.854   1.260  1.00 21.56     0.011 A 
HETATM   31  C9    D T 441       5.465  -7.460   0.012  1.00 22.96     0.058 A 
HETATM   32 CL1    D T 441       4.949  -6.465  -1.370  1.00 26.89    -0.082 Cl
HETATM   33  C10   D T 441       5.707  -8.840  -0.150  1.00 22.08     0.011 A 
HETATM   34  C11   D T 441       6.152  -9.612   0.947  1.00 21.58    -0.001 A 
ENDBRANCH  20  28
ENDBRANCH   1  20
TORSDOF 3
ENDMDL
MODEL 9
REMARK VINA RESULT:    -8.287      3.609      7.355
REMARK INTER + INTRA:          -9.854
REMARK INTER:                  -9.797
REMARK INTRA:                  -0.057
REMARK UNBOUND:                -0.114
REMARK  3 active torsions:
REMARK  status: ('A' for Active; 'I' for Inactive)
REMARK    1  A    between atoms: C4_6  and  C5_7 
REMARK    2  A    between atoms: C5_7  and  C6_8 
REMARK    3  A    between atoms: C5_7  and  C12_16 
ROOT
HETATM    1  C12   D T 441       7.380  -7.040   1.931  1.00 19.85     0.021 A 
HETATM    2  C13   D T 441       8.516  -6.951   1.073  1.00 19.83    -0.000 A 
HETATM    3  C14   D T 441       8.392  -6.479  -0.263  1.00 20.16     0.016 A 
HETATM    4  C15   D T 441       6.123  -6.610   1.436  1.00 20.41    -0.000 A 
HETATM    5  C16   D T 441       5.991  -6.145   0.118  1.00 20.73     0.017 A 
HETATM    6  C17   D T 441       7.110  -6.086  -0.740  1.00 21.09     0.062 A 
HETATM    7  N4    D T 441       6.953  -5.692  -2.108  1.00 20.91    -0.294 N 
HETATM    8  C18   D T 441       5.624  -5.266  -2.635  1.00 20.23     0.134 C 
HETATM    9  C19   D T 441       8.066  -5.698  -2.979  1.00 22.47     0.261 A 
HETATM   10  O1    D T 441       7.924  -5.406  -4.167  1.00 22.92    -0.267 OA
HETATM   11  C20   D T 441       9.326  -6.068  -2.501  1.00 22.04     0.061 A 
HETATM   12  C21   D T 441       9.514  -6.448  -1.154  1.00 20.64     0.006 A 
HETATM   13  C22   D T 441      10.841  -6.693  -0.713  1.00 21.65     0.001 A 
HETATM   14  C23   D T 441      11.221  -7.942  -0.168  1.00 20.99     0.011 A 
HETATM   15  C24   D T 441      12.564  -8.164   0.208  1.00 22.35     0.058 A 
HETATM   16 CL2    D T 441      13.055  -9.732   0.868  1.00 26.30    -0.082 Cl
HETATM   17  C25   D T 441      13.529  -7.153   0.047  1.00 21.98     0.011 A 
HETATM   18  C26   D T 441      13.157  -5.912  -0.492  1.00 20.12     0.001 A 
HETATM   19  C27   D T 441      11.823  -5.683  -0.870  1.00 21.15     0.000 A 
ENDROOT
BRANCH   1  20
HETATM   20  C5    D T 441       7.451  -7.713   3.207  1.00 20.67     0.342 C 
HETATM   21  N3    D T 441       6.040  -8.017   3.517  1.00 22.80     0.629 N 
BRANCH  20  22
HETATM   22  C4    D T 441       8.106  -9.005   3.172  1.00 19.37     0.100 A 
HETATM   23  N1    D T 441       7.578 -10.087   2.631  1.00 19.33    -0.308 N 
HETATM   24  C1    D T 441       6.287 -10.208   1.907  1.00 19.43     0.132 C 
HETATM   25  C2    D T 441       8.422 -11.091   2.868  1.00 17.45     0.178 A 
HETATM   26  N2    D T 441       9.470 -10.580   3.567  1.00 18.66    -0.223 NA
HETATM   27  C3    D T 441       9.269  -9.260   3.759  1.00 16.78     0.116 A 
ENDBRANCH  20  22
BRANCH  20  28
HETATM   28  C6    D T 441       7.928  -6.888   4.277  1.00 20.70     0.021 A 
HETATM   29  C7    D T 441       7.519  -7.147   5.609  1.00 21.08    -0.001 A 
HETATM   30  C8    D T 441       8.022  -6.386   6.673  1.00 21.56     0.011 A 
HETATM   31  C9    D T 441       8.939  -5.354   6.431  1.00 22.96     0.058 A 
HETATM   32 CL1    D T 441       9.598  -4.431   7.802  1.00 26.89    -0.082 Cl
HETATM   33  C10   D T 441       9.356  -5.075   5.112  1.00 22.08     0.011 A 
HETATM   34  C11   D T 441       8.852  -5.840   4.036  1.00 21.58    -0.001 A 
ENDBRANCH  20  28
ENDBRANCH   1  20
TORSDOF 3
ENDMDL
