MODEL 1
REMARK VINA RESULT:    -8.732      0.000      0.000
REMARK INTER + INTRA:         -13.567
REMARK INTER:                 -11.795
REMARK INTRA:                  -1.772
REMARK UNBOUND:                -1.772
REMARK  6 active torsions:
REMARK  status: ('A' for Active; 'I' for Inactive)
REMARK    1  A    between atoms: NBC_2  and  CBB_4 
REMARK    2  A    between atoms: CBB_4  and  CBA_5 
REMARK    3  A    between atoms: CBA_5  and  CAY_6 
REMARK    4  A    between atoms: CAY_6  and  NAH_7 
REMARK    5  A    between atoms: CAG_15  and  CAI_16 
REMARK    6  A    between atoms: CAJ_22  and  CAK_23 
ROOT
HETATM    1  CAI   D T1368       5.672  14.531  -1.602  1.00 47.54     0.064 A 
HETATM    2  CAT   D T1368       6.674  13.833  -2.271  1.00 46.36     0.282 A 
HETATM    3  OAZ   D T1368       6.886  12.623  -2.260  1.00 44.28    -0.265 OA
HETATM    4  NAU   D T1368       7.346  14.746  -2.970  1.00 46.45    -0.169 NA
HETATM    5  CAV   D T1368       6.877  15.984  -2.822  1.00 47.61     0.282 A 
HETATM    6  OAX   D T1368       7.289  17.001  -3.375  1.00 47.90    -0.265 OA
HETATM    7  CAJ   D T1368       5.806  15.872  -1.942  1.00 48.30     0.064 A 
ENDROOT
BRANCH   1   8
HETATM    8  CAG   D T1368       4.668  13.930  -0.847  1.00 49.01     0.023 A 
HETATM    9  CAW   D T1368       3.448  13.754  -1.354  1.00 50.91     0.076 A 
HETATM   10  NAH   D T1368       2.721  13.087  -0.452  1.00 50.74    -0.326 N 
HETATM   11  CAE   D T1368       3.420  12.814   0.649  1.00 49.51     0.060 A 
HETATM   12  CAF   D T1368       3.141  12.133   1.830  1.00 49.09     0.017 A 
HETATM   13  CAD   D T1368       4.681  13.348   0.413  1.00 48.06     0.017 A 
HETATM   14  CAA   D T1368       4.144  11.982   2.782  1.00 50.27     0.002 A 
HETATM   15  CAB   D T1368       5.411  12.513   2.553  1.00 50.31     0.000 A 
HETATM   16  CAC   D T1368       5.678  13.198   1.370  1.00 49.26     0.002 A 
BRANCH  10  17
HETATM   17  CAY   D T1368       1.346  12.611  -0.675  1.00 53.65     0.108 C 
BRANCH  17  18
HETATM   18  CBA   D T1368       0.286  13.713  -0.580  1.00 61.14     0.048 C 
BRANCH  18  19
HETATM   19  CBB   D T1368      -0.743  13.474   0.529  1.00 65.34     0.099 C 
BRANCH  19  20
HETATM   20  NBC   D T1368      -2.108  13.201   0.042  1.00 68.16    -0.365 N 
HETATM   21  CBD   D T1368      -2.219  12.712  -1.339  1.00 68.53     0.121 C 
HETATM   22  CBE   D T1368      -3.242  13.969   0.583  1.00 68.44     0.121 C 
ENDBRANCH  19  20
ENDBRANCH  18  19
ENDBRANCH  17  18
ENDBRANCH  10  17
ENDBRANCH   1   8
BRANCH   7  23
HETATM   23  CAK   D T1368       5.064  16.952  -1.464  1.00 49.21     0.025 A 
HETATM   24  CAM   D T1368       3.974  17.641  -1.970  1.00 47.19     0.019 A 
HETATM   25  CAP   D T1368       3.235  17.525  -3.144  1.00 47.05     0.002 A 
HETATM   26  CAN   D T1368       3.641  18.622  -1.047  1.00 48.17     0.081 A 
HETATM   27  CAQ   D T1368       2.176  18.395  -3.388  1.00 49.31     0.000 A 
HETATM   28  CAR   D T1368       1.848  19.380  -2.459  1.00 47.76     0.002 A 
HETATM   29  CAS   D T1368       2.581  19.495  -1.282  1.00 48.79     0.019 A 
HETATM   30  NAO   D T1368       4.512  18.486  -0.047  1.00 49.87    -0.244 NA
HETATM   31  CAL   D T1368       5.368  17.488  -0.284  1.00 50.14     0.099 A 
ENDBRANCH   7  23
TORSDOF 6
ENDMDL
MODEL 2
REMARK VINA RESULT:    -8.419      3.175      6.874
REMARK INTER + INTRA:         -13.144
REMARK INTER:                 -11.810
REMARK INTRA:                  -1.334
REMARK UNBOUND:                -1.772
REMARK  6 active torsions:
REMARK  status: ('A' for Active; 'I' for Inactive)
REMARK    1  A    between atoms: NBC_2  and  CBB_4 
REMARK    2  A    between atoms: CBB_4  and  CBA_5 
REMARK    3  A    between atoms: CBA_5  and  CAY_6 
REMARK    4  A    between atoms: CAY_6  and  NAH_7 
REMARK    5  A    between atoms: CAG_15  and  CAI_16 
REMARK    6  A    between atoms: CAJ_22  and  CAK_23 
ROOT
HETATM    1  CAI   D T1368       3.825  12.079   1.745  1.00 47.54     0.064 A 
HETATM    2  CAT   D T1368       2.867  11.347   2.443  1.00 46.36     0.282 A 
HETATM    3  OAZ   D T1368       1.681  11.196   2.161  1.00 44.28    -0.265 OA
HETATM    4  NAU   D T1368       3.510  10.800   3.474  1.00 46.45    -0.169 NA
HETATM    5  CAV   D T1368       4.805  11.105   3.518  1.00 47.61     0.282 A 
HETATM    6  OAX   D T1368       5.629  10.710   4.339  1.00 47.90    -0.265 OA
HETATM    7  CAJ   D T1368       5.030  11.932   2.422  1.00 48.30     0.064 A 
ENDROOT
BRANCH   1   8
HETATM    8  CAG   D T1368       3.592  12.716   0.529  1.00 49.01     0.023 A 
HETATM    9  CAW   D T1368       2.574  13.565   0.389  1.00 50.91     0.076 A 
HETATM   10  NAH   D T1368       2.640  14.084  -0.841  1.00 50.74    -0.326 N 
HETATM   11  CAE   D T1368       3.673  13.603  -1.531  1.00 49.51     0.060 A 
HETATM   12  CAF   D T1368       4.183  13.841  -2.804  1.00 49.09     0.017 A 
HETATM   13  CAD   D T1368       4.302  12.719  -0.664  1.00 48.06     0.017 A 
HETATM   14  CAA   D T1368       5.343  13.186  -3.207  1.00 50.27     0.002 A 
HETATM   15  CAB   D T1368       5.981  12.300  -2.342  1.00 50.31     0.000 A 
HETATM   16  CAC   D T1368       5.458  12.064  -1.072  1.00 49.26     0.002 A 
BRANCH  10  17
HETATM   17  CAY   D T1368       1.750  15.140  -1.349  1.00 53.65     0.108 C 
BRANCH  17  18
HETATM   18  CBA   D T1368       2.325  16.554  -1.215  1.00 61.14     0.048 C 
BRANCH  18  19
HETATM   19  CBB   D T1368       2.742  17.172  -2.554  1.00 65.34     0.099 C 
BRANCH  19  20
HETATM   20  NBC   D T1368       4.179  17.488  -2.654  1.00 68.16    -0.365 N 
HETATM   21  CBD   D T1368       4.775  17.384  -3.993  1.00 68.53     0.121 C 
HETATM   22  CBE   D T1368       5.060  17.250  -1.498  1.00 68.44     0.121 C 
ENDBRANCH  19  20
ENDBRANCH  18  19
ENDBRANCH  17  18
ENDBRANCH  10  17
ENDBRANCH   1   8
BRANCH   7  23
HETATM   23  CAK   D T1368       6.253  12.536   2.129  1.00 49.21     0.025 A 
HETATM   24  CAM   D T1368       7.516  12.025   1.875  1.00 47.19     0.019 A 
HETATM   25  CAP   D T1368       8.031  10.733   1.840  1.00 47.05     0.002 A 
HETATM   26  CAN   D T1368       8.353  13.102   1.626  1.00 48.17     0.081 A 
HETATM   27  CAQ   D T1368       9.380  10.530   1.564  1.00 49.31     0.000 A 
HETATM   28  CAR   D T1368      10.218  11.616   1.318  1.00 47.76     0.002 A 
HETATM   29  CAS   D T1368       9.705  12.909   1.346  1.00 48.79     0.019 A 
HETATM   30  NAO   D T1368       7.585  14.187   1.729  1.00 49.87    -0.244 NA
HETATM   31  CAL   D T1368       6.325  13.861   2.028  1.00 50.14     0.099 A 
ENDBRANCH   7  23
TORSDOF 6
ENDMDL
MODEL 3
REMARK VINA RESULT:    -8.268      2.774      5.891
REMARK INTER + INTRA:         -12.939
REMARK INTER:                 -12.167
REMARK INTRA:                  -0.773
REMARK UNBOUND:                -1.772
REMARK  6 active torsions:
REMARK  status: ('A' for Active; 'I' for Inactive)
REMARK    1  A    between atoms: NBC_2  and  CBB_4 
REMARK    2  A    between atoms: CBB_4  and  CBA_5 
REMARK    3  A    between atoms: CBA_5  and  CAY_6 
REMARK    4  A    between atoms: CAY_6  and  NAH_7 
REMARK    5  A    between atoms: CAG_15  and  CAI_16 
REMARK    6  A    between atoms: CAJ_22  and  CAK_23 
ROOT
HETATM    1  CAI   D T1368       2.473  13.091   0.806  1.00 47.54     0.064 A 
HETATM    2  CAT   D T1368       1.266  12.988   1.493  1.00 46.36     0.282 A 
HETATM    3  OAZ   D T1368       1.084  12.592   2.642  1.00 44.28    -0.265 OA
HETATM    4  NAU   D T1368       0.335  13.449   0.660  1.00 46.45    -0.169 NA
HETATM    5  CAV   D T1368       0.819  13.847  -0.516  1.00 47.61     0.282 A 
HETATM    6  OAX   D T1368       0.187  14.340  -1.446  1.00 47.90    -0.265 OA
HETATM    7  CAJ   D T1368       2.190  13.620  -0.448  1.00 48.30     0.064 A 
ENDROOT
BRANCH   1   8
HETATM    8  CAG   D T1368       3.719  12.820   1.366  1.00 49.01     0.023 A 
HETATM    9  CAW   D T1368       4.769  13.596   1.096  1.00 50.91     0.076 A 
HETATM   10  NAH   D T1368       5.800  13.158   1.824  1.00 50.74    -0.326 N 
HETATM   11  CAE   D T1368       5.471  12.106   2.574  1.00 49.51     0.060 A 
HETATM   12  CAF   D T1368       6.153  11.327   3.503  1.00 49.09     0.017 A 
HETATM   13  CAD   D T1368       4.131  11.874   2.294  1.00 48.06     0.017 A 
HETATM   14  CAA   D T1368       5.477  10.305   4.162  1.00 50.27     0.002 A 
HETATM   15  CAB   D T1368       4.133  10.066   3.888  1.00 50.31     0.000 A 
HETATM   16  CAC   D T1368       3.461  10.849   2.952  1.00 49.26     0.002 A 
BRANCH  10  17
HETATM   17  CAY   D T1368       7.117  13.812   1.884  1.00 53.65     0.108 C 
BRANCH  17  18
HETATM   18  CBA   D T1368       7.966  13.614   0.624  1.00 61.14     0.048 C 
BRANCH  18  19
HETATM   19  CBB   D T1368       8.542  14.919   0.066  1.00 65.34     0.099 C 
BRANCH  19  20
HETATM   20  NBC   D T1368       7.718  15.544  -0.986  1.00 68.16    -0.365 N 
HETATM   21  CBD   D T1368       8.366  15.736  -2.290  1.00 68.53     0.121 C 
HETATM   22  CBE   D T1368       6.653  16.490  -0.610  1.00 68.44     0.121 C 
ENDBRANCH  19  20
ENDBRANCH  18  19
ENDBRANCH  17  18
ENDBRANCH  10  17
ENDBRANCH   1   8
BRANCH   7  23
HETATM   23  CAK   D T1368       3.077  13.840  -1.501  1.00 49.21     0.025 A 
HETATM   24  CAM   D T1368       3.508  14.991  -2.142  1.00 47.19     0.019 A 
HETATM   25  CAP   D T1368       3.201  16.339  -1.986  1.00 47.05     0.002 A 
HETATM   26  CAN   D T1368       4.417  14.605  -3.116  1.00 48.17     0.081 A 
HETATM   27  CAQ   D T1368       3.800  17.288  -2.809  1.00 49.31     0.000 A 
HETATM   28  CAR   D T1368       4.709  16.894  -3.789  1.00 47.76     0.002 A 
HETATM   29  CAS   D T1368       5.023  15.548  -3.944  1.00 48.79     0.019 A 
HETATM   30  NAO   D T1368       4.502  13.277  -3.023  1.00 49.87    -0.244 NA
HETATM   31  CAL   D T1368       3.706  12.808  -2.059  1.00 50.14     0.099 A 
ENDBRANCH   7  23
TORSDOF 6
ENDMDL
MODEL 4
REMARK VINA RESULT:    -8.259      1.725      4.440
REMARK INTER + INTRA:         -12.928
REMARK INTER:                 -10.853
REMARK INTRA:                  -2.075
REMARK UNBOUND:                -1.772
REMARK  6 active torsions:
REMARK  status: ('A' for Active; 'I' for Inactive)
REMARK    1  A    between atoms: NBC_2  and  CBB_4 
REMARK    2  A    between atoms: CBB_4  and  CBA_5 
REMARK    3  A    between atoms: CBA_5  and  CAY_6 
REMARK    4  A    between atoms: CAY_6  and  NAH_7 
REMARK    5  A    between atoms: CAG_15  and  CAI_16 
REMARK    6  A    between atoms: CAJ_22  and  CAK_23 
ROOT
HETATM    1  CAI   D T1368       4.956  14.116  -2.007  1.00 47.54     0.064 A 
HETATM    2  CAT   D T1368       5.543  13.304  -2.974  1.00 46.36     0.282 A 
HETATM    3  OAZ   D T1368       5.576  12.076  -3.008  1.00 44.28    -0.265 OA
HETATM    4  NAU   D T1368       6.035  14.133  -3.893  1.00 46.45    -0.169 NA
HETATM    5  CAV   D T1368       5.825  15.420  -3.619  1.00 47.61     0.282 A 
HETATM    6  OAX   D T1368       6.144  16.384  -4.310  1.00 47.90    -0.265 OA
HETATM    7  CAJ   D T1368       5.140  15.435  -2.408  1.00 48.30     0.064 A 
ENDROOT
BRANCH   1   8
HETATM    8  CAG   D T1368       4.221  13.640  -0.924  1.00 49.01     0.023 A 
HETATM    9  CAW   D T1368       4.833  13.094   0.126  1.00 50.91     0.076 A 
HETATM   10  NAH   D T1368       3.900  12.805   1.039  1.00 50.74    -0.326 N 
HETATM   11  CAE   D T1368       2.678  13.141   0.628  1.00 49.51     0.060 A 
HETATM   12  CAF   D T1368       1.412  13.081   1.202  1.00 49.09     0.017 A 
HETATM   13  CAD   D T1368       2.863  13.684  -0.637  1.00 48.06     0.017 A 
HETATM   14  CAA   D T1368       0.320  13.579   0.498  1.00 50.27     0.002 A 
HETATM   15  CAB   D T1368       0.498  14.126  -0.771  1.00 50.31     0.000 A 
HETATM   16  CAC   D T1368       1.769  14.176  -1.339  1.00 49.26     0.002 A 
BRANCH  10  17
HETATM   17  CAY   D T1368       4.184  12.279   2.384  1.00 53.65     0.108 C 
BRANCH  17  18
HETATM   18  CBA   D T1368       5.618  12.533   2.859  1.00 61.14     0.048 C 
BRANCH  18  19
HETATM   19  CBB   D T1368       6.377  11.253   3.219  1.00 65.34     0.099 C 
BRANCH  19  20
HETATM   20  NBC   D T1368       7.466  10.910   2.284  1.00 68.16    -0.365 N 
HETATM   21  CBD   D T1368       8.265   9.725   2.624  1.00 68.53     0.121 C 
HETATM   22  CBE   D T1368       8.126  11.977   1.513  1.00 68.44     0.121 C 
ENDBRANCH  19  20
ENDBRANCH  18  19
ENDBRANCH  17  18
ENDBRANCH  10  17
ENDBRANCH   1   8
BRANCH   7  23
HETATM   23  CAK   D T1368       4.778  16.594  -1.723  1.00 49.21     0.025 A 
HETATM   24  CAM   D T1368       3.762  17.518  -1.911  1.00 47.19     0.019 A 
HETATM   25  CAP   D T1368       2.750  17.641  -2.859  1.00 47.05     0.002 A 
HETATM   26  CAN   D T1368       3.875  18.466  -0.905  1.00 48.17     0.081 A 
HETATM   27  CAQ   D T1368       1.866  18.714  -2.796  1.00 49.31     0.000 A 
HETATM   28  CAR   D T1368       1.986  19.665  -1.784  1.00 47.76     0.002 A 
HETATM   29  CAS   D T1368       2.993  19.542  -0.832  1.00 48.79     0.019 A 
HETATM   30  NAO   D T1368       4.919  18.084  -0.167  1.00 49.87    -0.244 NA
HETATM   31  CAL   D T1368       5.466  16.964  -0.645  1.00 50.14     0.099 A 
ENDBRANCH   7  23
TORSDOF 6
ENDMDL
MODEL 5
REMARK VINA RESULT:    -8.248      3.081      6.419
REMARK INTER + INTRA:         -12.913
REMARK INTER:                 -12.407
REMARK INTRA:                  -0.506
REMARK UNBOUND:                -1.772
REMARK  6 active torsions:
REMARK  status: ('A' for Active; 'I' for Inactive)
REMARK    1  A    between atoms: NBC_2  and  CBB_4 
REMARK    2  A    between atoms: CBB_4  and  CBA_5 
REMARK    3  A    between atoms: CBA_5  and  CAY_6 
REMARK    4  A    between atoms: CAY_6  and  NAH_7 
REMARK    5  A    between atoms: CAG_15  and  CAI_16 
REMARK    6  A    between atoms: CAJ_22  and  CAK_23 
ROOT
HETATM    1  CAI   D T1368       2.507  13.116   0.766  1.00 47.54     0.064 A 
HETATM    2  CAT   D T1368       1.297  13.038   1.451  1.00 46.36     0.282 A 
HETATM    3  OAZ   D T1368       1.107  12.666   2.606  1.00 44.28    -0.265 OA
HETATM    4  NAU   D T1368       0.373  13.491   0.604  1.00 46.45    -0.169 NA
HETATM    5  CAV   D T1368       0.865  13.861  -0.577  1.00 47.61     0.282 A 
HETATM    6  OAX   D T1368       0.240  14.341  -1.519  1.00 47.90    -0.265 OA
HETATM    7  CAJ   D T1368       2.233  13.623  -0.500  1.00 48.30     0.064 A 
ENDROOT
BRANCH   1   8
HETATM    8  CAG   D T1368       3.749  12.846   1.335  1.00 49.01     0.023 A 
HETATM    9  CAW   D T1368       4.802  13.619   1.069  1.00 50.91     0.076 A 
HETATM   10  NAH   D T1368       5.827  13.182   1.806  1.00 50.74    -0.326 N 
HETATM   11  CAE   D T1368       5.491  12.135   2.558  1.00 49.51     0.060 A 
HETATM   12  CAF   D T1368       6.166  11.358   3.496  1.00 49.09     0.017 A 
HETATM   13  CAD   D T1368       4.152  11.903   2.270  1.00 48.06     0.017 A 
HETATM   14  CAA   D T1368       5.483  10.340   4.155  1.00 50.27     0.002 A 
HETATM   15  CAB   D T1368       4.141  10.103   3.873  1.00 50.31     0.000 A 
HETATM   16  CAC   D T1368       3.476  10.883   2.929  1.00 49.26     0.002 A 
BRANCH  10  17
HETATM   17  CAY   D T1368       7.146  13.834   1.872  1.00 53.65     0.108 C 
BRANCH  17  18
HETATM   18  CBA   D T1368       8.185  13.227   0.924  1.00 61.14     0.048 C 
BRANCH  18  19
HETATM   19  CBB   D T1368       9.459  12.762   1.635  1.00 65.34     0.099 C 
BRANCH  19  20
HETATM   20  NBC   D T1368       9.892  11.398   1.274  1.00 68.16    -0.365 N 
HETATM   21  CBD   D T1368       8.966  10.311   1.619  1.00 68.53     0.121 C 
HETATM   22  CBE   D T1368      11.328  11.078   1.227  1.00 68.44     0.121 C 
ENDBRANCH  19  20
ENDBRANCH  18  19
ENDBRANCH  17  18
ENDBRANCH  10  17
ENDBRANCH   1   8
BRANCH   7  23
HETATM   23  CAK   D T1368       3.126  13.814  -1.554  1.00 49.21     0.025 A 
HETATM   24  CAM   D T1368       3.615  14.952  -2.176  1.00 47.19     0.019 A 
HETATM   25  CAP   D T1368       3.381  16.312  -1.995  1.00 47.05     0.002 A 
HETATM   26  CAN   D T1368       4.497  14.536  -3.162  1.00 48.17     0.081 A 
HETATM   27  CAQ   D T1368       4.026  17.242  -2.805  1.00 49.31     0.000 A 
HETATM   28  CAR   D T1368       4.908  16.818  -3.796  1.00 47.76     0.002 A 
HETATM   29  CAS   D T1368       5.149  15.460  -3.977  1.00 48.79     0.019 A 
HETATM   30  NAO   D T1368       4.511  13.204  -3.094  1.00 49.87    -0.244 NA
HETATM   31  CAL   D T1368       3.696  12.760  -2.133  1.00 50.14     0.099 A 
ENDBRANCH   7  23
TORSDOF 6
ENDMDL
MODEL 6
REMARK VINA RESULT:    -7.556      1.452      2.046
REMARK INTER + INTRA:         -11.978
REMARK INTER:                 -10.560
REMARK INTRA:                  -1.418
REMARK UNBOUND:                -1.772
REMARK  6 active torsions:
REMARK  status: ('A' for Active; 'I' for Inactive)
REMARK    1  A    between atoms: NBC_2  and  CBB_4 
REMARK    2  A    between atoms: CBB_4  and  CBA_5 
REMARK    3  A    between atoms: CBA_5  and  CAY_6 
REMARK    4  A    between atoms: CAY_6  and  NAH_7 
REMARK    5  A    between atoms: CAG_15  and  CAI_16 
REMARK    6  A    between atoms: CAJ_22  and  CAK_23 
ROOT
HETATM    1  CAI   D T1368       5.469  15.405  -3.025  1.00 47.54     0.064 A 
HETATM    2  CAT   D T1368       6.640  14.882  -3.567  1.00 46.36     0.282 A 
HETATM    3  OAZ   D T1368       7.218  13.845  -3.254  1.00 44.28    -0.265 OA
HETATM    4  NAU   D T1368       6.996  15.723  -4.537  1.00 46.45    -0.169 NA
HETATM    5  CAV   D T1368       6.165  16.753  -4.684  1.00 47.61     0.282 A 
HETATM    6  OAX   D T1368       6.241  17.651  -5.519  1.00 47.90    -0.265 OA
HETATM    7  CAJ   D T1368       5.179  16.575  -3.719  1.00 48.30     0.064 A 
ENDROOT
BRANCH   1   8
HETATM    8  CAG   D T1368       4.699  14.766  -2.056  1.00 49.01     0.023 A 
HETATM    9  CAW   D T1368       3.464  14.348  -2.334  1.00 50.91     0.076 A 
HETATM   10  NAH   D T1368       2.999  13.704  -1.259  1.00 50.74    -0.326 N 
HETATM   11  CAE   D T1368       3.887  13.682  -0.267  1.00 49.51     0.060 A 
HETATM   12  CAF   D T1368       3.901  13.125   1.009  1.00 49.09     0.017 A 
HETATM   13  CAD   D T1368       4.993  14.360  -0.762  1.00 48.06     0.017 A 
HETATM   14  CAA   D T1368       5.044  13.248   1.793  1.00 50.27     0.002 A 
HETATM   15  CAB   D T1368       6.158  13.925   1.304  1.00 50.31     0.000 A 
HETATM   16  CAC   D T1368       6.131  14.483   0.027  1.00 49.26     0.002 A 
BRANCH  10  17
HETATM   17  CAY   D T1368       1.704  13.006  -1.201  1.00 53.65     0.108 C 
BRANCH  17  18
HETATM   18  CBA   D T1368       0.597  13.810  -0.511  1.00 61.14     0.048 C 
BRANCH  18  19
HETATM   19  CBB   D T1368      -0.693  13.901  -1.332  1.00 65.34     0.099 C 
BRANCH  19  20
HETATM   20  NBC   D T1368      -1.848  13.213  -0.725  1.00 68.16    -0.365 N 
HETATM   21  CBD   D T1368      -2.528  12.220  -1.567  1.00 68.53     0.121 C 
HETATM   22  CBE   D T1368      -2.653  13.905   0.295  1.00 68.44     0.121 C 
ENDBRANCH  19  20
ENDBRANCH  18  19
ENDBRANCH  17  18
ENDBRANCH  10  17
ENDBRANCH   1   8
BRANCH   7  23
HETATM   23  CAK   D T1368       4.137  17.471  -3.483  1.00 49.21     0.025 A 
HETATM   24  CAM   D T1368       3.711  18.138  -2.345  1.00 47.19     0.019 A 
HETATM   25  CAP   D T1368       4.147  18.142  -1.024  1.00 47.05     0.002 A 
HETATM   26  CAN   D T1368       2.626  18.922  -2.709  1.00 48.17     0.081 A 
HETATM   27  CAQ   D T1368       3.491  18.923  -0.077  1.00 49.31     0.000 A 
HETATM   28  CAR   D T1368       2.400  19.706  -0.448  1.00 47.76     0.002 A 
HETATM   29  CAS   D T1368       1.964  19.709  -1.769  1.00 48.79     0.019 A 
HETATM   30  NAO   D T1368       2.450  18.710  -4.014  1.00 49.87    -0.244 NA
HETATM   31  CAL   D T1368       3.350  17.845  -4.489  1.00 50.14     0.099 A 
ENDBRANCH   7  23
TORSDOF 6
ENDMDL
MODEL 7
REMARK VINA RESULT:    -7.536      3.301      8.329
REMARK INTER + INTRA:         -11.951
REMARK INTER:                 -10.130
REMARK INTRA:                  -1.821
REMARK UNBOUND:                -1.772
REMARK  6 active torsions:
REMARK  status: ('A' for Active; 'I' for Inactive)
REMARK    1  A    between atoms: NBC_2  and  CBB_4 
REMARK    2  A    between atoms: CBB_4  and  CBA_5 
REMARK    3  A    between atoms: CBA_5  and  CAY_6 
REMARK    4  A    between atoms: CAY_6  and  NAH_7 
REMARK    5  A    between atoms: CAG_15  and  CAI_16 
REMARK    6  A    between atoms: CAJ_22  and  CAK_23 
ROOT
HETATM    1  CAI   D T1368       4.598  16.110  -2.602  1.00 47.54     0.064 A 
HETATM    2  CAT   D T1368       3.500  16.960  -2.708  1.00 46.36     0.282 A 
HETATM    3  OAZ   D T1368       3.425  18.021  -3.321  1.00 44.28    -0.265 OA
HETATM    4  NAU   D T1368       2.516  16.365  -2.034  1.00 46.45    -0.169 NA
HETATM    5  CAV   D T1368       2.867  15.200  -1.493  1.00 47.61     0.282 A 
HETATM    6  OAX   D T1368       2.148  14.436  -0.853  1.00 47.90    -0.265 OA
HETATM    7  CAJ   D T1368       4.202  15.017  -1.838  1.00 48.30     0.064 A 
ENDROOT
BRANCH   1   8
HETATM    8  CAG   D T1368       5.807  16.304  -3.266  1.00 49.01     0.023 A 
HETATM    9  CAW   D T1368       5.844  16.410  -4.594  1.00 50.91     0.076 A 
HETATM   10  NAH   D T1368       7.105  16.671  -4.949  1.00 50.74    -0.326 N 
HETATM   11  CAE   D T1368       7.917  16.740  -3.895  1.00 49.51     0.060 A 
HETATM   12  CAF   D T1368       9.272  17.012  -3.730  1.00 49.09     0.017 A 
HETATM   13  CAD   D T1368       7.097  16.508  -2.797  1.00 48.06     0.017 A 
HETATM   14  CAA   D T1368       9.807  17.056  -2.447  1.00 50.27     0.002 A 
HETATM   15  CAB   D T1368       8.992  16.825  -1.341  1.00 50.31     0.000 A 
HETATM   16  CAC   D T1368       7.637  16.549  -1.517  1.00 49.26     0.002 A 
BRANCH  10  17
HETATM   17  CAY   D T1368       7.543  16.957  -6.325  1.00 53.65     0.108 C 
BRANCH  17  18
HETATM   18  CBA   D T1368       8.301  15.802  -6.987  1.00 61.14     0.048 C 
BRANCH  18  19
HETATM   19  CBB   D T1368       9.187  16.245  -8.156  1.00 65.34     0.099 C 
BRANCH  19  20
HETATM   20  NBC   D T1368      10.550  16.651  -7.764  1.00 68.16    -0.365 N 
HETATM   21  CBD   D T1368      10.814  18.096  -7.733  1.00 68.53     0.121 C 
HETATM   22  CBE   D T1368      11.686  15.758  -8.050  1.00 68.44     0.121 C 
ENDBRANCH  19  20
ENDBRANCH  18  19
ENDBRANCH  17  18
ENDBRANCH  10  17
ENDBRANCH   1   8
BRANCH   7  23
HETATM   23  CAK   D T1368       4.984  13.942  -1.417  1.00 49.21     0.025 A 
HETATM   24  CAM   D T1368       5.709  13.704  -0.260  1.00 47.19     0.019 A 
HETATM   25  CAP   D T1368       5.939  14.453   0.891  1.00 47.05     0.002 A 
HETATM   26  CAN   D T1368       6.281  12.447  -0.382  1.00 48.17     0.081 A 
HETATM   27  CAQ   D T1368       6.744  13.941   1.904  1.00 49.31     0.000 A 
HETATM   28  CAR   D T1368       7.319  12.678   1.773  1.00 47.76     0.002 A 
HETATM   29  CAS   D T1368       7.087  11.925   0.627  1.00 48.79     0.019 A 
HETATM   30  NAO   D T1368       5.885  11.986  -1.570  1.00 49.87    -0.244 NA
HETATM   31  CAL   D T1368       5.107  12.871  -2.198  1.00 50.14     0.099 A 
ENDBRANCH   7  23
TORSDOF 6
ENDMDL
MODEL 8
REMARK VINA RESULT:    -7.346      3.258      8.566
REMARK INTER + INTRA:         -11.694
REMARK INTER:                  -9.970
REMARK INTRA:                  -1.724
REMARK UNBOUND:                -1.772
REMARK  6 active torsions:
REMARK  status: ('A' for Active; 'I' for Inactive)
REMARK    1  A    between atoms: NBC_2  and  CBB_4 
REMARK    2  A    between atoms: CBB_4  and  CBA_5 
REMARK    3  A    between atoms: CBA_5  and  CAY_6 
REMARK    4  A    between atoms: CAY_6  and  NAH_7 
REMARK    5  A    between atoms: CAG_15  and  CAI_16 
REMARK    6  A    between atoms: CAJ_22  and  CAK_23 
ROOT
HETATM    1  CAI   D T1368       4.341  16.658  -2.787  1.00 47.54     0.064 A 
HETATM    2  CAT   D T1368       3.236  17.505  -2.796  1.00 46.36     0.282 A 
HETATM    3  OAZ   D T1368       3.142  18.616  -3.312  1.00 44.28    -0.265 OA
HETATM    4  NAU   D T1368       2.270  16.847  -2.157  1.00 46.45    -0.169 NA
HETATM    5  CAV   D T1368       2.639  15.641  -1.727  1.00 47.61     0.282 A 
HETATM    6  OAX   D T1368       1.938  14.819  -1.142  1.00 47.90    -0.265 OA
HETATM    7  CAJ   D T1368       3.967  15.500  -2.114  1.00 48.30     0.064 A 
ENDROOT
BRANCH   1   8
HETATM    8  CAG   D T1368       5.534  16.918  -3.456  1.00 49.01     0.023 A 
HETATM    9  CAW   D T1368       6.687  16.983  -2.790  1.00 50.91     0.076 A 
HETATM   10  NAH   D T1368       7.666  17.161  -3.683  1.00 50.74    -0.326 N 
HETATM   11  CAE   D T1368       7.200  17.220  -4.930  1.00 49.51     0.060 A 
HETATM   12  CAF   D T1368       7.794  17.355  -6.181  1.00 49.09     0.017 A 
HETATM   13  CAD   D T1368       5.826  17.063  -4.805  1.00 48.06     0.017 A 
HETATM   14  CAA   D T1368       6.996  17.327  -7.320  1.00 50.27     0.002 A 
HETATM   15  CAB   D T1368       5.618  17.169  -7.205  1.00 50.31     0.000 A 
HETATM   16  CAC   D T1368       5.032  17.040  -5.947  1.00 49.26     0.002 A 
BRANCH  10  17
HETATM   17  CAY   D T1368       9.101  17.183  -3.354  1.00 53.65     0.108 C 
BRANCH  17  18
HETATM   18  CBA   D T1368       9.763  15.802  -3.375  1.00 61.14     0.048 C 
BRANCH  18  19
HETATM   19  CBB   D T1368      10.770  15.626  -4.515  1.00 65.34     0.099 C 
BRANCH  19  20
HETATM   20  NBC   D T1368      11.955  14.821  -4.158  1.00 68.16    -0.365 N 
HETATM   21  CBD   D T1368      12.522  15.057  -2.823  1.00 68.53     0.121 C 
HETATM   22  CBE   D T1368      12.873  14.369  -5.216  1.00 68.44     0.121 C 
ENDBRANCH  19  20
ENDBRANCH  18  19
ENDBRANCH  17  18
ENDBRANCH  10  17
ENDBRANCH   1   8
BRANCH   7  23
HETATM   23  CAK   D T1368       4.764  14.398  -1.804  1.00 49.21     0.025 A 
HETATM   24  CAM   D T1368       5.601  14.115  -0.737  1.00 47.19     0.019 A 
HETATM   25  CAP   D T1368       5.969  14.827   0.401  1.00 47.05     0.002 A 
HETATM   26  CAN   D T1368       6.128  12.849  -0.950  1.00 48.17     0.081 A 
HETATM   27  CAQ   D T1368       6.865  14.272   1.309  1.00 49.31     0.000 A 
HETATM   28  CAR   D T1368       7.393  13.002   1.088  1.00 47.76     0.002 A 
HETATM   29  CAS   D T1368       7.023  12.284  -0.045  1.00 48.79     0.019 A 
HETATM   30  NAO   D T1368       5.598  12.428  -2.099  1.00 49.87    -0.244 NA
HETATM   31  CAL   D T1368       4.779  13.346  -2.619  1.00 50.14     0.099 A 
ENDBRANCH   7  23
TORSDOF 6
ENDMDL
MODEL 9
REMARK VINA RESULT:    -7.039      4.192      8.667
REMARK INTER + INTRA:         -11.280
REMARK INTER:                  -9.125
REMARK INTRA:                  -2.155
REMARK UNBOUND:                -1.772
REMARK  6 active torsions:
REMARK  status: ('A' for Active; 'I' for Inactive)
REMARK    1  A    between atoms: NBC_2  and  CBB_4 
REMARK    2  A    between atoms: CBB_4  and  CBA_5 
REMARK    3  A    between atoms: CBA_5  and  CAY_6 
REMARK    4  A    between atoms: CAY_6  and  NAH_7 
REMARK    5  A    between atoms: CAG_15  and  CAI_16 
REMARK    6  A    between atoms: CAJ_22  and  CAK_23 
ROOT
HETATM    1  CAI   D T1368       8.904  16.731  -3.560  1.00 47.54     0.064 A 
HETATM    2  CAT   D T1368      10.176  17.041  -3.084  1.00 46.36     0.282 A 
HETATM    3  OAZ   D T1368      11.057  17.683  -3.650  1.00 44.28    -0.265 OA
HETATM    4  NAU   D T1368      10.236  16.529  -1.855  1.00 46.45    -0.169 NA
HETATM    5  CAV   D T1368       9.119  15.909  -1.479  1.00 47.61     0.282 A 
HETATM    6  OAX   D T1368       8.897  15.382  -0.392  1.00 47.90    -0.265 OA
HETATM    7  CAJ   D T1368       8.251  16.019  -2.561  1.00 48.30     0.064 A 
ENDROOT
BRANCH   1   8
HETATM    8  CAG   D T1368       8.388  17.186  -4.771  1.00 49.01     0.023 A 
HETATM    9  CAW   D T1368       7.507  18.185  -4.803  1.00 50.91     0.076 A 
HETATM   10  NAH   D T1368       7.250  18.465  -6.084  1.00 50.74    -0.326 N 
HETATM   11  CAE   D T1368       7.934  17.677  -6.914  1.00 49.51     0.060 A 
HETATM   12  CAF   D T1368       8.042  17.589  -8.298  1.00 49.09     0.017 A 
HETATM   13  CAD   D T1368       8.676  16.845  -6.086  1.00 48.06     0.017 A 
HETATM   14  CAA   D T1368       8.912  16.658  -8.856  1.00 50.27     0.002 A 
HETATM   15  CAB   D T1368       9.661  15.821  -8.033  1.00 50.31     0.000 A 
HETATM   16  CAC   D T1368       9.541  15.913  -6.648  1.00 49.26     0.002 A 
BRANCH  10  17
HETATM   17  CAY   D T1368       6.400  19.576  -6.542  1.00 53.65     0.108 C 
BRANCH  17  18
HETATM   18  CBA   D T1368       7.181  20.742  -7.155  1.00 61.14     0.048 C 
BRANCH  18  19
HETATM   19  CBB   D T1368       7.948  21.572  -6.121  1.00 65.34     0.099 C 
BRANCH  19  20
HETATM   20  NBC   D T1368       9.392  21.276  -6.056  1.00 68.16    -0.365 N 
HETATM   21  CBD   D T1368      10.006  20.768  -7.291  1.00 68.53     0.121 C 
HETATM   22  CBE   D T1368       9.995  20.862  -4.778  1.00 68.44     0.121 C 
ENDBRANCH  19  20
ENDBRANCH  18  19
ENDBRANCH  17  18
ENDBRANCH  10  17
ENDBRANCH   1   8
BRANCH   7  23
HETATM   23  CAK   D T1368       6.980  15.446  -2.612  1.00 49.21     0.025 A 
HETATM   24  CAM   D T1368       5.715  15.942  -2.342  1.00 47.19     0.019 A 
HETATM   25  CAP   D T1368       5.249  17.178  -1.902  1.00 47.05     0.002 A 
HETATM   26  CAN   D T1368       4.811  14.918  -2.584  1.00 48.17     0.081 A 
HETATM   27  CAQ   D T1368       3.887  17.376  -1.702  1.00 49.31     0.000 A 
HETATM   28  CAR   D T1368       2.983  16.343  -1.944  1.00 47.76     0.002 A 
HETATM   29  CAS   D T1368       3.444  15.108  -2.388  1.00 48.79     0.019 A 
HETATM   30  NAO   D T1368       5.543  13.879  -2.985  1.00 49.87    -0.244 NA
HETATM   31  CAL   D T1368       6.843  14.183  -3.008  1.00 50.14     0.099 A 
ENDBRANCH   7  23
TORSDOF 6
ENDMDL
