MODEL 1
REMARK VINA RESULT:    -7.005      0.000      0.000
REMARK INTER + INTRA:         -10.075
REMARK INTER:                  -9.052
REMARK INTRA:                  -1.022
REMARK UNBOUND:                -1.022
REMARK  10 active torsions:
REMARK  status: ('A' for Active; 'I' for Inactive)
REMARK    1  A    between atoms: C1_1  and  C21_25 
REMARK    2  A    between atoms: N1_14  and  C13_15 
REMARK    3  A    between atoms: C13_15  and  C14_16 
REMARK    4  A    between atoms: C14_16  and  C15_17 
REMARK    5  A    between atoms: C15_17  and  N2_18 
REMARK    6  A    between atoms: C1_29  and  C21_53 
REMARK    7  A    between atoms: N1_42  and  C13_43 
REMARK    8  A    between atoms: C13_43  and  C14_44 
REMARK    9  A    between atoms: C14_44  and  C15_45 
REMARK   10  A    between atoms: C15_45  and  N2_46 
ROOT
HETATM    1  C1    D T 202      11.404   5.208  -8.981  1.00 72.07     0.073 A 
HETATM    2  C2    D T 202      11.568   3.867  -9.320  1.00 66.75     0.004 A 
HETATM    3  C3    D T 202      11.449   2.884  -8.358  1.00 64.31     0.008 A 
HETATM    4  C4    D T 202      11.193   3.250  -7.006  1.00 57.81     0.045 A 
HETATM    5  C5    D T 202      11.015   4.626  -6.649  1.00 60.23     0.066 A 
HETATM    6  C6    D T 202      11.147   5.609  -7.674  1.00 62.82     0.022 A 
HETATM    7  S     D T 202      11.078   2.030  -5.861  1.00 48.28    -0.084 SA
HETATM    8  C7    D T 202      11.489   2.823  -4.360  1.00 54.77     0.045 A 
HETATM    9  C8    D T 202      12.032   2.040  -3.300  1.00 53.70     0.008 A 
HETATM   10  C9    D T 202      12.364   2.649  -2.085  1.00 52.70     0.001 A 
HETATM   11  C10   D T 202      12.168   4.021  -1.890  1.00 49.72     0.002 A 
HETATM   12  C11   D T 202      11.641   4.821  -2.909  1.00 54.23     0.018 A 
HETATM   13  C12   D T 202      11.288   4.240  -4.174  1.00 55.91     0.066 A 
HETATM   14  N1    D T 202      10.753   4.999  -5.283  1.00 62.58    -0.327 N 
ENDROOT
BRANCH  14  15
HETATM   15  C13   D T 202       9.982   6.216  -4.991  1.00 70.73     0.108 C 
BRANCH  15  16
HETATM   16  C14   D T 202       8.598   5.756  -4.613  1.00 75.76     0.060 C 
BRANCH  16  17
HETATM   17  C15   D T 202       8.192   6.415  -3.317  1.00 85.42     0.252 C 
BRANCH  17  18
HETATM   18  N2    D T 202       7.852   5.479  -2.235  1.00 90.51     0.141 N 
HETATM   19  C16   D T 202       6.463   5.825  -1.887  1.00 93.50     0.285 C 
HETATM   20  C17   D T 202       5.866   4.841  -0.881  1.00 97.60     0.285 C 
HETATM   21  N3    D T 202       5.986   3.437  -1.332  1.00 98.38     0.143 N 
HETATM   22  C18   D T 202       7.362   3.072  -1.758  1.00 96.71     0.285 C 
HETATM   23  C20   D T 202       5.610   2.575  -0.213  1.00 98.84     0.285 C 
HETATM   24  C19   D T 202       7.951   4.087  -2.745  1.00 92.85     0.285 C 
ENDBRANCH  17  18
ENDBRANCH  16  17
ENDBRANCH  15  16
ENDBRANCH  14  15
BRANCH   1  25
HETATM   25  C21   D T 202      11.537   6.296 -10.032  1.00 80.59     0.419 C 
HETATM   26  F1    D T 202      11.547   7.467  -9.565  1.00 87.14    -0.166 F 
HETATM   27  F2    D T 202      10.629   6.387 -10.924  1.00 85.30    -0.166 F 
HETATM   28  F3    D T 202      12.570   6.291 -10.774  1.00 84.54    -0.166 F 
ENDBRANCH   1  25
TORSDOF 10
ENDMDL
MODEL 2
REMARK VINA RESULT:    -6.846      2.133      3.448
REMARK INTER + INTRA:          -9.870
REMARK INTER:                  -9.142
REMARK INTRA:                  -0.728
REMARK UNBOUND:                -1.022
REMARK  10 active torsions:
REMARK  status: ('A' for Active; 'I' for Inactive)
REMARK    1  A    between atoms: C1_1  and  C21_25 
REMARK    2  A    between atoms: N1_14  and  C13_15 
REMARK    3  A    between atoms: C13_15  and  C14_16 
REMARK    4  A    between atoms: C14_16  and  C15_17 
REMARK    5  A    between atoms: C15_17  and  N2_18 
REMARK    6  A    between atoms: C1_29  and  C21_53 
REMARK    7  A    between atoms: N1_42  and  C13_43 
REMARK    8  A    between atoms: C13_43  and  C14_44 
REMARK    9  A    between atoms: C14_44  and  C15_45 
REMARK   10  A    between atoms: C15_45  and  N2_46 
ROOT
HETATM    1  C1    D T 202      11.411   5.159  -9.038  1.00 72.07     0.073 A 
HETATM    2  C2    D T 202      11.580   3.810  -9.345  1.00 66.75     0.004 A 
HETATM    3  C3    D T 202      11.440   2.849  -8.364  1.00 64.31     0.008 A 
HETATM    4  C4    D T 202      11.157   3.244  -7.026  1.00 57.81     0.045 A 
HETATM    5  C5    D T 202      10.972   4.628  -6.703  1.00 60.23     0.066 A 
HETATM    6  C6    D T 202      11.127   5.588  -7.746  1.00 62.82     0.022 A 
HETATM    7  S     D T 202      11.017   2.049  -5.857  1.00 48.28    -0.084 SA
HETATM    8  C7    D T 202      11.398   2.875  -4.366  1.00 54.77     0.045 A 
HETATM    9  C8    D T 202      11.918   2.115  -3.278  1.00 53.70     0.008 A 
HETATM   10  C9    D T 202      12.226   2.750  -2.070  1.00 52.70     0.001 A 
HETATM   11  C10   D T 202      12.026   4.126  -1.909  1.00 49.72     0.002 A 
HETATM   12  C11   D T 202      11.521   4.904  -2.956  1.00 54.23     0.018 A 
HETATM   13  C12   D T 202      11.195   4.296  -4.215  1.00 55.91     0.066 A 
HETATM   14  N1    D T 202      10.683   5.031  -5.351  1.00 62.58    -0.327 N 
ENDROOT
BRANCH  14  15
HETATM   15  C13   D T 202       9.907   6.254  -5.102  1.00 70.73     0.108 C 
BRANCH  15  16
HETATM   16  C14   D T 202       8.665   5.822  -4.369  1.00 75.76     0.060 C 
BRANCH  16  17
HETATM   17  C15   D T 202       8.283   6.885  -3.366  1.00 85.42     0.252 C 
BRANCH  17  18
HETATM   18  N2    D T 202       9.153   8.070  -3.369  1.00 90.51     0.141 N 
HETATM   19  C16   D T 202       8.249   9.177  -3.721  1.00 93.50     0.285 C 
HETATM   20  C17   D T 202       8.940  10.536  -3.612  1.00 97.60     0.285 C 
HETATM   21  N3    D T 202       9.569  10.740  -2.288  1.00 98.38     0.143 N 
HETATM   22  C18   D T 202      10.436   9.607  -1.868  1.00 96.71     0.285 C 
HETATM   23  C20   D T 202      10.394  11.943  -2.365  1.00 98.84     0.285 C 
HETATM   24  C19   D T 202       9.730   8.253  -2.012  1.00 92.85     0.285 C 
ENDBRANCH  17  18
ENDBRANCH  16  17
ENDBRANCH  15  16
ENDBRANCH  14  15
BRANCH   1  25
HETATM   25  C21   D T 202      11.566   6.223 -10.110  1.00 80.59     0.419 C 
HETATM   26  F1    D T 202      11.580   7.403  -9.667  1.00 87.14    -0.166 F 
HETATM   27  F2    D T 202      10.671   6.303 -11.016  1.00 85.30    -0.166 F 
HETATM   28  F3    D T 202      12.609   6.194 -10.839  1.00 84.54    -0.166 F 
ENDBRANCH   1  25
TORSDOF 10
ENDMDL
MODEL 3
REMARK VINA RESULT:    -6.200      1.512      1.969
REMARK INTER + INTRA:          -9.035
REMARK INTER:                  -8.320
REMARK INTRA:                  -0.715
REMARK UNBOUND:                -1.022
REMARK  10 active torsions:
REMARK  status: ('A' for Active; 'I' for Inactive)
REMARK    1  A    between atoms: C1_1  and  C21_25 
REMARK    2  A    between atoms: N1_14  and  C13_15 
REMARK    3  A    between atoms: C13_15  and  C14_16 
REMARK    4  A    between atoms: C14_16  and  C15_17 
REMARK    5  A    between atoms: C15_17  and  N2_18 
REMARK    6  A    between atoms: C1_29  and  C21_53 
REMARK    7  A    between atoms: N1_42  and  C13_43 
REMARK    8  A    between atoms: C13_43  and  C14_44 
REMARK    9  A    between atoms: C14_44  and  C15_45 
REMARK   10  A    between atoms: C15_45  and  N2_46 
ROOT
HETATM    1  C1    D T 202      11.043   4.523  -7.897  1.00 72.07     0.073 A 
HETATM    2  C2    D T 202      11.341   3.162  -7.935  1.00 66.75     0.004 A 
HETATM    3  C3    D T 202      11.428   2.434  -6.765  1.00 64.31     0.008 A 
HETATM    4  C4    D T 202      11.248   3.089  -5.514  1.00 57.81     0.045 A 
HETATM    5  C5    D T 202      10.932   4.486  -5.466  1.00 60.23     0.066 A 
HETATM    6  C6    D T 202      10.852   5.200  -6.697  1.00 62.82     0.022 A 
HETATM    7  S     D T 202      11.384   2.177  -4.113  1.00 48.28    -0.084 SA
HETATM    8  C7    D T 202      11.823   3.347  -2.892  1.00 54.77     0.045 A 
HETATM    9  C8    D T 202      12.548   2.901  -1.749  1.00 53.70     0.008 A 
HETATM   10  C9    D T 202      12.907   3.815  -0.753  1.00 52.70     0.001 A 
HETATM   11  C10   D T 202      12.560   5.167  -0.858  1.00 49.72     0.002 A 
HETATM   12  C11   D T 202      11.852   5.641  -1.967  1.00 54.23     0.018 A 
HETATM   13  C12   D T 202      11.465   4.739  -3.016  1.00 55.91     0.066 A 
HETATM   14  N1    D T 202      10.746   5.151  -4.201  1.00 62.58    -0.327 N 
ENDROOT
BRANCH  14  15
HETATM   15  C13   D T 202       9.858   6.319  -4.112  1.00 70.73     0.108 C 
BRANCH  15  16
HETATM   16  C14   D T 202       8.459   5.775  -3.990  1.00 75.76     0.060 C 
BRANCH  16  17
HETATM   17  C15   D T 202       8.113   5.617  -2.529  1.00 85.42     0.252 C 
BRANCH  17  18
HETATM   18  N2    D T 202       6.811   6.181  -2.143  1.00 90.51     0.141 N 
HETATM   19  C16   D T 202       5.836   5.178  -2.603  1.00 93.50     0.285 C 
HETATM   20  C17   D T 202       4.417   5.507  -2.141  1.00 97.60     0.285 C 
HETATM   21  N3    D T 202       4.339   5.719  -0.678  1.00 98.38     0.143 N 
HETATM   22  C18   D T 202       5.357   6.674  -0.167  1.00 96.71     0.285 C 
HETATM   23  C20   D T 202       3.014   6.255  -0.375  1.00 98.84     0.285 C 
HETATM   24  C19   D T 202       6.768   6.339  -0.666  1.00 92.85     0.285 C 
ENDBRANCH  17  18
ENDBRANCH  16  17
ENDBRANCH  15  16
ENDBRANCH  14  15
BRANCH   1  25
HETATM   25  C21   D T 202      10.948   5.332  -9.179  1.00 80.59     0.419 C 
HETATM   26  F1    D T 202      10.984   6.580  -9.006  1.00 87.14    -0.166 F 
HETATM   27  F2    D T 202       9.900   5.206  -9.896  1.00 85.30    -0.166 F 
HETATM   28  F3    D T 202      11.841   5.156 -10.068  1.00 84.54    -0.166 F 
ENDBRANCH   1  25
TORSDOF 10
ENDMDL
MODEL 4
REMARK VINA RESULT:    -6.052      3.654      5.736
REMARK INTER + INTRA:          -8.843
REMARK INTER:                  -7.636
REMARK INTRA:                  -1.207
REMARK UNBOUND:                -1.022
REMARK  10 active torsions:
REMARK  status: ('A' for Active; 'I' for Inactive)
REMARK    1  A    between atoms: C1_1  and  C21_25 
REMARK    2  A    between atoms: N1_14  and  C13_15 
REMARK    3  A    between atoms: C13_15  and  C14_16 
REMARK    4  A    between atoms: C14_16  and  C15_17 
REMARK    5  A    between atoms: C15_17  and  N2_18 
REMARK    6  A    between atoms: C1_29  and  C21_53 
REMARK    7  A    between atoms: N1_42  and  C13_43 
REMARK    8  A    between atoms: C13_43  and  C14_44 
REMARK    9  A    between atoms: C14_44  and  C15_45 
REMARK   10  A    between atoms: C15_45  and  N2_46 
ROOT
HETATM    1  C1    D T 202      11.769   5.470  -2.028  1.00 72.07     0.073 A 
HETATM    2  C2    D T 202      11.227   6.722  -2.316  1.00 66.75     0.004 A 
HETATM    3  C3    D T 202      10.591   6.946  -3.522  1.00 64.31     0.008 A 
HETATM    4  C4    D T 202      10.523   5.901  -4.486  1.00 57.81     0.045 A 
HETATM    5  C5    D T 202      11.069   4.609  -4.195  1.00 60.23     0.066 A 
HETATM    6  C6    D T 202      11.718   4.420  -2.939  1.00 62.82     0.022 A 
HETATM    7  S     D T 202       9.763   6.217  -5.948  1.00 48.28    -0.084 SA
HETATM    8  C7    D T 202      10.482   5.070  -7.051  1.00 54.77     0.045 A 
HETATM    9  C8    D T 202      10.513   5.386  -8.440  1.00 53.70     0.008 A 
HETATM   10  C9    D T 202      11.077   4.482  -9.347  1.00 52.70     0.001 A 
HETATM   11  C10   D T 202      11.611   3.264  -8.911  1.00 49.72     0.002 A 
HETATM   12  C11   D T 202      11.600   2.921  -7.555  1.00 54.23     0.018 A 
HETATM   13  C12   D T 202      11.035   3.820  -6.588  1.00 55.91     0.066 A 
HETATM   14  N1    D T 202      10.999   3.548  -5.168  1.00 62.58    -0.327 N 
ENDROOT
BRANCH  14  15
HETATM   15  C13   D T 202      10.957   2.148  -4.722  1.00 70.73     0.108 C 
BRANCH  15  16
HETATM   16  C14   D T 202       9.514   1.848  -4.413  1.00 75.76     0.060 C 
BRANCH  16  17
HETATM   17  C15   D T 202       9.366   1.586  -2.934  1.00 85.42     0.252 C 
BRANCH  17  18
HETATM   18  N2    D T 202       8.600   2.607  -2.204  1.00 90.51     0.141 N 
HETATM   19  C16   D T 202       7.789   3.258  -3.246  1.00 93.50     0.285 C 
HETATM   20  C17   D T 202       6.789   4.251  -2.653  1.00 97.60     0.285 C 
HETATM   21  N3    D T 202       5.946   3.637  -1.603  1.00 98.38     0.143 N 
HETATM   22  C18   D T 202       6.729   2.909  -0.571  1.00 96.71     0.285 C 
HETATM   23  C20   D T 202       5.202   4.708  -0.944  1.00 98.84     0.285 C 
HETATM   24  C19   D T 202       7.744   1.940  -1.189  1.00 92.85     0.285 C 
ENDBRANCH  17  18
ENDBRANCH  16  17
ENDBRANCH  15  16
ENDBRANCH  14  15
BRANCH   1  25
HETATM   25  C21   D T 202      12.473   5.217  -0.707  1.00 80.59     0.419 C 
HETATM   26  F1    D T 202      12.138   4.140  -0.143  1.00 87.14    -0.166 F 
HETATM   27  F2    D T 202      12.307   6.059   0.237  1.00 85.30    -0.166 F 
HETATM   28  F3    D T 202      13.743   5.138  -0.708  1.00 84.54    -0.166 F 
ENDBRANCH   1  25
TORSDOF 10
ENDMDL
MODEL 5
REMARK VINA RESULT:    -5.835      4.386      6.699
REMARK INTER + INTRA:          -8.563
REMARK INTER:                  -8.235
REMARK INTRA:                  -0.328
REMARK UNBOUND:                -1.022
REMARK  10 active torsions:
REMARK  status: ('A' for Active; 'I' for Inactive)
REMARK    1  A    between atoms: C1_1  and  C21_25 
REMARK    2  A    between atoms: N1_14  and  C13_15 
REMARK    3  A    between atoms: C13_15  and  C14_16 
REMARK    4  A    between atoms: C14_16  and  C15_17 
REMARK    5  A    between atoms: C15_17  and  N2_18 
REMARK    6  A    between atoms: C1_29  and  C21_53 
REMARK    7  A    between atoms: N1_42  and  C13_43 
REMARK    8  A    between atoms: C13_43  and  C14_44 
REMARK    9  A    between atoms: C14_44  and  C15_45 
REMARK   10  A    between atoms: C15_45  and  N2_46 
ROOT
HETATM    1  C1    D T 202       7.234   4.145  -2.908  1.00 72.07     0.073 A 
HETATM    2  C2    D T 202       7.863   2.964  -2.517  1.00 66.75     0.004 A 
HETATM    3  C3    D T 202       9.031   2.559  -3.133  1.00 64.31     0.008 A 
HETATM    4  C4    D T 202       9.572   3.337  -4.196  1.00 57.81     0.045 A 
HETATM    5  C5    D T 202       8.937   4.556  -4.598  1.00 60.23     0.066 A 
HETATM    6  C6    D T 202       7.732   4.937  -3.937  1.00 62.82     0.022 A 
HETATM    7  S     D T 202      10.980   2.801  -4.934  1.00 48.28    -0.084 SA
HETATM    8  C7    D T 202      10.916   3.517  -6.526  1.00 54.77     0.045 A 
HETATM    9  C8    D T 202      11.609   2.873  -7.593  1.00 53.70     0.008 A 
HETATM   10  C9    D T 202      11.580   3.428  -8.877  1.00 52.70     0.001 A 
HETATM   11  C10   D T 202      10.882   4.614  -9.132  1.00 49.72     0.002 A 
HETATM   12  C11   D T 202      10.188   5.272  -8.111  1.00 54.23     0.018 A 
HETATM   13  C12   D T 202      10.188   4.736  -6.778  1.00 55.91     0.066 A 
HETATM   14  N1    D T 202       9.484   5.346  -5.672  1.00 62.58    -0.327 N 
ENDROOT
BRANCH  14  15
HETATM   15  C13   D T 202       9.272   6.801  -5.691  1.00 70.73     0.108 C 
BRANCH  15  16
HETATM   16  C14   D T 202       9.540   7.283  -4.290  1.00 75.76     0.060 C 
BRANCH  16  17
HETATM   17  C15   D T 202       8.684   8.495  -4.009  1.00 85.42     0.252 C 
BRANCH  17  18
HETATM   18  N2    D T 202       9.229   9.407  -2.992  1.00 90.51     0.141 N 
HETATM   19  C16   D T 202      10.520   8.803  -2.624  1.00 93.50     0.285 C 
HETATM   20  C17   D T 202      11.326   9.703  -1.688  1.00 97.60     0.285 C 
HETATM   21  N3    D T 202      11.493  11.069  -2.231  1.00 98.38     0.143 N 
HETATM   22  C18   D T 202      10.217  11.685  -2.679  1.00 96.71     0.285 C 
HETATM   23  C20   D T 202      12.058  11.905  -1.174  1.00 98.84     0.285 C 
HETATM   24  C19   D T 202       9.414  10.753  -3.595  1.00 92.85     0.285 C 
ENDBRANCH  17  18
ENDBRANCH  16  17
ENDBRANCH  15  16
ENDBRANCH  14  15
BRANCH   1  25
HETATM   25  C21   D T 202       5.947   4.595  -2.239  1.00 80.59     0.419 C 
HETATM   26  F1    D T 202       6.114   5.424  -1.305  1.00 87.14    -0.166 F 
HETATM   27  F2    D T 202       5.222   3.713  -1.669  1.00 85.30    -0.166 F 
HETATM   28  F3    D T 202       5.066   5.169  -2.956  1.00 84.54    -0.166 F 
ENDBRANCH   1  25
TORSDOF 10
ENDMDL
MODEL 6
REMARK VINA RESULT:    -5.794      4.621      6.863
REMARK INTER + INTRA:          -8.510
REMARK INTER:                  -7.419
REMARK INTRA:                  -1.091
REMARK UNBOUND:                -1.022
REMARK  10 active torsions:
REMARK  status: ('A' for Active; 'I' for Inactive)
REMARK    1  A    between atoms: C1_1  and  C21_25 
REMARK    2  A    between atoms: N1_14  and  C13_15 
REMARK    3  A    between atoms: C13_15  and  C14_16 
REMARK    4  A    between atoms: C14_16  and  C15_17 
REMARK    5  A    between atoms: C15_17  and  N2_18 
REMARK    6  A    between atoms: C1_29  and  C21_53 
REMARK    7  A    between atoms: N1_42  and  C13_43 
REMARK    8  A    between atoms: C13_43  and  C14_44 
REMARK    9  A    between atoms: C14_44  and  C15_45 
REMARK   10  A    between atoms: C15_45  and  N2_46 
ROOT
HETATM    1  C1    D T 202       5.939   4.807  -1.993  1.00 72.07     0.073 A 
HETATM    2  C2    D T 202       6.406   3.529  -1.694  1.00 66.75     0.004 A 
HETATM    3  C3    D T 202       7.613   3.091  -2.203  1.00 64.31     0.008 A 
HETATM    4  C4    D T 202       8.363   3.939  -3.066  1.00 57.81     0.045 A 
HETATM    5  C5    D T 202       7.895   5.258  -3.371  1.00 60.23     0.066 A 
HETATM    6  C6    D T 202       6.643   5.671  -2.826  1.00 62.82     0.022 A 
HETATM    7  S     D T 202       9.813   3.364  -3.682  1.00 48.28    -0.084 SA
HETATM    8  C7    D T 202      10.037   4.281  -5.151  1.00 54.77     0.045 A 
HETATM    9  C8    D T 202      10.819   3.712  -6.198  1.00 53.70     0.008 A 
HETATM   10  C9    D T 202      11.020   4.428  -7.384  1.00 52.70     0.001 A 
HETATM   11  C10   D T 202      10.466   5.701  -7.558  1.00 49.72     0.002 A 
HETATM   12  C11   D T 202       9.690   6.289  -6.554  1.00 54.23     0.018 A 
HETATM   13  C12   D T 202       9.455   5.590  -5.322  1.00 55.91     0.066 A 
HETATM   14  N1    D T 202       8.652   6.120  -4.242  1.00 62.58    -0.327 N 
ENDROOT
BRANCH  14  15
HETATM   15  C13   D T 202       8.566   7.579  -4.083  1.00 70.73     0.108 C 
BRANCH  15  16
HETATM   16  C14   D T 202       9.525   7.939  -2.979  1.00 75.76     0.060 C 
BRANCH  16  17
HETATM   17  C15   D T 202       8.851   8.899  -2.028  1.00 85.42     0.252 C 
BRANCH  17  18
HETATM   18  N2    D T 202       7.503   9.322  -2.436  1.00 90.51     0.141 N 
HETATM   19  C16   D T 202       6.669   9.049  -1.254  1.00 93.50     0.285 C 
HETATM   20  C17   D T 202       5.246   9.580  -1.424  1.00 97.60     0.285 C 
HETATM   21  N3    D T 202       5.225  11.014  -1.793  1.00 98.38     0.143 N 
HETATM   22  C18   D T 202       6.112  11.339  -2.940  1.00 96.71     0.285 C 
HETATM   23  C20   D T 202       3.854  11.360  -2.161  1.00 98.84     0.285 C 
HETATM   24  C19   D T 202       7.525  10.772  -2.760  1.00 92.85     0.285 C 
ENDBRANCH  17  18
ENDBRANCH  16  17
ENDBRANCH  15  16
ENDBRANCH  14  15
BRANCH   1  25
HETATM   25  C21   D T 202       4.611   5.296  -1.441  1.00 80.59     0.419 C 
HETATM   26  F1    D T 202       4.384   6.518  -1.650  1.00 87.14    -0.166 F 
HETATM   27  F2    D T 202       4.413   5.213  -0.183  1.00 85.30    -0.166 F 
HETATM   28  F3    D T 202       3.545   4.746  -1.865  1.00 84.54    -0.166 F 
ENDBRANCH   1  25
TORSDOF 10
ENDMDL
MODEL 7
REMARK VINA RESULT:    -5.784     14.536     17.485
REMARK INTER + INTRA:          -8.497
REMARK INTER:                  -7.448
REMARK INTRA:                  -1.049
REMARK UNBOUND:                -1.022
REMARK  10 active torsions:
REMARK  status: ('A' for Active; 'I' for Inactive)
REMARK    1  A    between atoms: C1_1  and  C21_25 
REMARK    2  A    between atoms: N1_14  and  C13_15 
REMARK    3  A    between atoms: C13_15  and  C14_16 
REMARK    4  A    between atoms: C14_16  and  C15_17 
REMARK    5  A    between atoms: C15_17  and  N2_18 
REMARK    6  A    between atoms: C1_29  and  C21_53 
REMARK    7  A    between atoms: N1_42  and  C13_43 
REMARK    8  A    between atoms: C13_43  and  C14_44 
REMARK    9  A    between atoms: C14_44  and  C15_45 
REMARK   10  A    between atoms: C15_45  and  N2_46 
ROOT
HETATM    1  C1    D T 202      -4.866  -4.341  -1.256  1.00 72.07     0.073 A 
HETATM    2  C2    D T 202      -4.453  -5.369  -2.102  1.00 66.75     0.004 A 
HETATM    3  C3    D T 202      -3.238  -5.993  -1.900  1.00 64.31     0.008 A 
HETATM    4  C4    D T 202      -2.389  -5.556  -0.844  1.00 57.81     0.045 A 
HETATM    5  C5    D T 202      -2.809  -4.506   0.036  1.00 60.23     0.066 A 
HETATM    6  C6    D T 202      -4.071  -3.888  -0.208  1.00 62.82     0.022 A 
HETATM    7  S     D T 202      -0.911  -6.323  -0.644  1.00 48.28    -0.084 SA
HETATM    8  C7    D T 202       0.073  -5.130   0.169  1.00 54.77     0.045 A 
HETATM    9  C8    D T 202       1.488  -5.190   0.011  1.00 53.70     0.008 A 
HETATM   10  C9    D T 202       2.301  -4.252   0.655  1.00 52.70     0.001 A 
HETATM   11  C10   D T 202       1.745  -3.251   1.461  1.00 49.72     0.002 A 
HETATM   12  C11   D T 202       0.360  -3.159   1.636  1.00 54.23     0.018 A 
HETATM   13  C12   D T 202      -0.513  -4.099   0.991  1.00 55.91     0.066 A 
HETATM   14  N1    D T 202      -1.954  -4.064   1.108  1.00 62.58    -0.327 N 
ENDROOT
BRANCH  14  15
HETATM   15  C13   D T 202      -2.545  -3.499   2.330  1.00 70.73     0.108 C 
BRANCH  15  16
HETATM   16  C14   D T 202      -2.841  -4.667   3.233  1.00 75.76     0.060 C 
BRANCH  16  17
HETATM   17  C15   D T 202      -1.829  -4.699   4.353  1.00 85.42     0.252 C 
BRANCH  17  18
HETATM   18  N2    D T 202      -1.258  -6.027   4.625  1.00 90.51     0.141 N 
HETATM   19  C16   D T 202      -1.822  -6.396   5.935  1.00 93.50     0.285 C 
HETATM   20  C17   D T 202      -1.474  -7.833   6.321  1.00 97.60     0.285 C 
HETATM   21  N3    D T 202      -1.849  -8.803   5.267  1.00 98.38     0.143 N 
HETATM   22  C18   D T 202      -1.356  -8.424   3.917  1.00 96.71     0.285 C 
HETATM   23  C20   D T 202      -1.267 -10.096   5.621  1.00 98.84     0.285 C 
HETATM   24  C19   D T 202      -1.693  -6.970   3.563  1.00 92.85     0.285 C 
ENDBRANCH  17  18
ENDBRANCH  16  17
ENDBRANCH  15  16
ENDBRANCH  14  15
BRANCH   1  25
HETATM   25  C21   D T 202      -6.199  -3.647  -1.473  1.00 80.59     0.419 C 
HETATM   26  F1    D T 202      -6.158  -2.698  -2.302  1.00 87.14    -0.166 F 
HETATM   27  F2    D T 202      -6.757  -3.084  -0.473  1.00 85.30    -0.166 F 
HETATM   28  F3    D T 202      -7.174  -4.341  -1.903  1.00 84.54    -0.166 F 
ENDBRANCH   1  25
TORSDOF 10
ENDMDL
MODEL 8
REMARK VINA RESULT:    -5.717      4.260      6.752
REMARK INTER + INTRA:          -8.411
REMARK INTER:                  -7.201
REMARK INTRA:                  -1.210
REMARK UNBOUND:                -1.022
REMARK  10 active torsions:
REMARK  status: ('A' for Active; 'I' for Inactive)
REMARK    1  A    between atoms: C1_1  and  C21_25 
REMARK    2  A    between atoms: N1_14  and  C13_15 
REMARK    3  A    between atoms: C13_15  and  C14_16 
REMARK    4  A    between atoms: C14_16  and  C15_17 
REMARK    5  A    between atoms: C15_17  and  N2_18 
REMARK    6  A    between atoms: C1_29  and  C21_53 
REMARK    7  A    between atoms: N1_42  and  C13_43 
REMARK    8  A    between atoms: C13_43  and  C14_44 
REMARK    9  A    between atoms: C14_44  and  C15_45 
REMARK   10  A    between atoms: C15_45  and  N2_46 
ROOT
HETATM    1  C1    D T 202       5.987   4.796  -1.935  1.00 72.07     0.073 A 
HETATM    2  C2    D T 202       6.349   3.463  -1.748  1.00 66.75     0.004 A 
HETATM    3  C3    D T 202       7.496   2.964  -2.334  1.00 64.31     0.008 A 
HETATM    4  C4    D T 202       8.290   3.808  -3.161  1.00 57.81     0.045 A 
HETATM    5  C5    D T 202       7.929   5.182  -3.351  1.00 60.23     0.066 A 
HETATM    6  C6    D T 202       6.737   5.657  -2.730  1.00 62.82     0.022 A 
HETATM    7  S     D T 202       9.663   3.160  -3.873  1.00 48.28    -0.084 SA
HETATM    8  C7    D T 202       9.919   4.163  -5.279  1.00 54.77     0.045 A 
HETATM    9  C8    D T 202      10.614   3.611  -6.394  1.00 53.70     0.008 A 
HETATM   10  C9    D T 202      10.839   4.395  -7.532  1.00 52.70     0.001 A 
HETATM   11  C10   D T 202      10.393   5.721  -7.591  1.00 49.72     0.002 A 
HETATM   12  C11   D T 202       9.705   6.294  -6.518  1.00 54.23     0.018 A 
HETATM   13  C12   D T 202       9.449   5.526  -5.332  1.00 55.91     0.066 A 
HETATM   14  N1    D T 202       8.731   6.040  -4.185  1.00 62.58    -0.327 N 
ENDROOT
BRANCH  14  15
HETATM   15  C13   D T 202       8.779   7.484  -3.917  1.00 70.73     0.108 C 
BRANCH  15  16
HETATM   16  C14   D T 202      10.100   7.743  -3.242  1.00 75.76     0.060 C 
BRANCH  16  17
HETATM   17  C15   D T 202       9.913   7.687  -1.745  1.00 85.42     0.252 C 
BRANCH  17  18
HETATM   18  N2    D T 202      10.524   6.519  -1.095  1.00 90.51     0.141 N 
HETATM   19  C16   D T 202      11.509   6.037  -2.077  1.00 93.50     0.285 C 
HETATM   20  C17   D T 202      12.375   4.911  -1.512  1.00 97.60     0.285 C 
HETATM   21  N3    D T 202      13.015   5.287  -0.232  1.00 98.38     0.143 N 
HETATM   22  C18   D T 202      12.061   5.845   0.762  1.00 96.71     0.285 C 
HETATM   23  C20   D T 202      13.617   4.083   0.337  1.00 98.84     0.285 C 
HETATM   24  C19   D T 202      11.184   6.952   0.164  1.00 92.85     0.285 C 
ENDBRANCH  17  18
ENDBRANCH  16  17
ENDBRANCH  15  16
ENDBRANCH  14  15
BRANCH   1  25
HETATM   25  C21   D T 202       4.726   5.353  -1.298  1.00 80.59     0.419 C 
HETATM   26  F1    D T 202       4.649   6.611  -1.319  1.00 87.14    -0.166 F 
HETATM   27  F2    D T 202       4.513   5.107  -0.064  1.00 85.30    -0.166 F 
HETATM   28  F3    D T 202       3.603   5.005  -1.785  1.00 84.54    -0.166 F 
ENDBRANCH   1  25
TORSDOF 10
ENDMDL
MODEL 9
REMARK VINA RESULT:    -5.653     17.200     19.703
REMARK INTER + INTRA:          -8.327
REMARK INTER:                  -6.844
REMARK INTRA:                  -1.483
REMARK UNBOUND:                -1.022
REMARK  10 active torsions:
REMARK  status: ('A' for Active; 'I' for Inactive)
REMARK    1  A    between atoms: C1_1  and  C21_25 
REMARK    2  A    between atoms: N1_14  and  C13_15 
REMARK    3  A    between atoms: C13_15  and  C14_16 
REMARK    4  A    between atoms: C14_16  and  C15_17 
REMARK    5  A    between atoms: C15_17  and  N2_18 
REMARK    6  A    between atoms: C1_29  and  C21_53 
REMARK    7  A    between atoms: N1_42  and  C13_43 
REMARK    8  A    between atoms: C13_43  and  C14_44 
REMARK    9  A    between atoms: C14_44  and  C15_45 
REMARK   10  A    between atoms: C15_45  and  N2_46 
ROOT
HETATM    1  C1    D T 202      -1.584  -4.933   4.173  1.00 72.07     0.073 A 
HETATM    2  C2    D T 202      -0.313  -4.795   3.618  1.00 66.75     0.004 A 
HETATM    3  C3    D T 202       0.731  -5.580   4.065  1.00 64.31     0.008 A 
HETATM    4  C4    D T 202       0.512  -6.509   5.121  1.00 57.81     0.045 A 
HETATM    5  C5    D T 202      -0.793  -6.664   5.691  1.00 60.23     0.066 A 
HETATM    6  C6    D T 202      -1.844  -5.832   5.202  1.00 62.82     0.022 A 
HETATM    7  S     D T 202       1.810  -7.430   5.651  1.00 48.28    -0.084 SA
HETATM    8  C7    D T 202       1.386  -7.845   7.294  1.00 54.77     0.045 A 
HETATM    9  C8    D T 202       2.433  -8.124   8.220  1.00 53.70     0.008 A 
HETATM   10  C9    D T 202       2.121  -8.465   9.540  1.00 52.70     0.001 A 
HETATM   11  C10   D T 202       0.791  -8.542   9.969  1.00 49.72     0.002 A 
HETATM   12  C11   D T 202      -0.262  -8.272   9.089  1.00 54.23     0.018 A 
HETATM   13  C12   D T 202       0.011  -7.914   7.725  1.00 55.91     0.066 A 
HETATM   14  N1    D T 202      -1.019  -7.605   6.758  1.00 62.58    -0.327 N 
ENDROOT
BRANCH  14  15
HETATM   15  C13   D T 202      -2.343  -8.223   6.920  1.00 70.73     0.108 C 
BRANCH  15  16
HETATM   16  C14   D T 202      -2.216  -9.631   6.399  1.00 75.76     0.060 C 
BRANCH  16  17
HETATM   17  C15   D T 202      -2.974  -9.750   5.099  1.00 85.42     0.252 C 
BRANCH  17  18
HETATM   18  N2    D T 202      -2.128  -9.943   3.912  1.00 90.51     0.141 N 
HETATM   19  C16   D T 202      -2.280  -8.688   3.157  1.00 93.50     0.285 C 
HETATM   20  C17   D T 202      -1.337  -8.627   1.956  1.00 97.60     0.285 C 
HETATM   21  N3    D T 202       0.072  -8.871   2.338  1.00 98.38     0.143 N 
HETATM   22  C18   D T 202       0.254 -10.094   3.163  1.00 96.71     0.285 C 
HETATM   23  C20   D T 202       0.848  -9.028   1.109  1.00 98.84     0.285 C 
HETATM   24  C19   D T 202      -0.722 -10.147   4.345  1.00 92.85     0.285 C 
ENDBRANCH  17  18
ENDBRANCH  16  17
ENDBRANCH  15  16
ENDBRANCH  14  15
BRANCH   1  25
HETATM   25  C21   D T 202      -2.738  -4.070   3.691  1.00 80.59     0.419 C 
HETATM   26  F1    D T 202      -3.344  -3.458   4.611  1.00 87.14    -0.166 F 
HETATM   27  F2    D T 202      -3.705  -4.640   3.085  1.00 85.30    -0.166 F 
HETATM   28  F3    D T 202      -2.485  -3.135   2.866  1.00 84.54    -0.166 F 
ENDBRANCH   1  25
TORSDOF 10
ENDMDL
