MODEL 1
REMARK VINA RESULT:    -9.166      0.000      0.000
REMARK INTER + INTRA:         -16.797
REMARK INTER:                 -15.060
REMARK INTRA:                  -1.736
REMARK UNBOUND:                -1.736
REMARK  11 active torsions:
REMARK  status: ('A' for Active; 'I' for Inactive)
REMARK    1  A    between atoms: S2_2  and  C5_5 
REMARK    2  A    between atoms: C5_5  and  C6_6 
REMARK    3  A    between atoms: C6_6  and  N7_7 
REMARK    4  A    between atoms: N7_7  and  C8_8 
REMARK    5  A    between atoms: C8_8  and  C9_9 
REMARK    6  A    between atoms: C12_12  and  C14_14 
REMARK    7  A    between atoms: C21_21  and  N22_22 
REMARK    8  A    between atoms: N22_22  and  C23_23 
REMARK    9  A    between atoms: C26_26  and  O27_27 
REMARK   10  A    between atoms: O27_27  and  C28_28 
REMARK   11  A    between atoms: C28_28  and  C29_29 
ROOT
HETATM    1  C14   D T  91       4.979  12.222   2.099  1.00 38.14     0.023 A 
HETATM    2  C15   D T  91       3.716  11.965   2.628  1.00 35.17     0.004 A 
HETATM    3  C16   D T  91       2.594  12.349   1.935  1.00 34.68     0.019 A 
HETATM    4  C17   D T  91       2.710  13.000   0.708  1.00 33.31     0.086 A 
HETATM    5  N18   D T  91       1.571  13.378   0.025  1.00 32.08    -0.224 NA
HETATM    6  C19   D T  91       1.671  14.025  -1.191  1.00 32.80     0.200 A 
HETATM    7  N20   D T  91       2.909  14.301  -1.733  1.00 33.06    -0.205 NA
HETATM    8  C21   D T  91       4.061  13.933  -1.066  1.00 33.11     0.166 A 
HETATM    9  C39   D T  91       3.961  13.272   0.174  1.00 33.77     0.054 A 
HETATM   10  C40   D T  91       5.100  12.889   0.860  1.00 34.65     0.006 A 
ENDROOT
BRANCH   8  11
HETATM   11  N22   D T  91       5.313  14.210  -1.613  1.00 33.98    -0.227 NA
BRANCH  11  12
HETATM   12  C23   D T  91       5.499  15.215  -2.578  1.00 33.25     0.084 A 
HETATM   13  C24   D T  91       5.885  16.499  -2.186  1.00 31.98     0.021 A 
HETATM   14  C25   D T  91       6.066  17.488  -3.148  1.00 31.39     0.027 A 
HETATM   15  C26   D T  91       5.861  17.191  -4.491  1.00 32.78     0.105 A 
HETATM   16  C36   D T  91       5.481  15.936  -4.866  1.00 33.04     0.082 A 
HETATM   17 CL3    D T  91       5.240  15.612  -6.509  1.00 34.74    -0.080 Cl
HETATM   18  C38   D T  91       5.297  14.944  -3.928  1.00 32.28     0.033 A 
BRANCH  15  19
HETATM   19  O27   D T  91       6.045  18.175  -5.498  1.00 32.72    -0.325 OA
BRANCH  19  20
HETATM   20  C28   D T  91       7.411  18.582  -5.658  1.00 34.20     0.175 C 
BRANCH  20  21
HETATM   21  C29   D T  91       8.195  17.618  -6.569  1.00 33.41     0.010 A 
HETATM   22  C30   D T  91       9.032  16.681  -6.004  1.00 32.49    -0.002 A 
HETATM   23  C31   D T  91       9.736  15.808  -6.810  1.00 32.79     0.002 A 
HETATM   24  C32   D T  91       9.598  15.869  -8.180  1.00 32.60     0.030 A 
HETATM   25  C33   D T  91       8.762  16.799  -8.750  1.00 33.26     0.140 A 
HETATM   26  F34   D T  91       8.631  16.850 -10.056  1.00 33.03    -0.204 F 
HETATM   27  C35   D T  91       8.059  17.678  -7.954  1.00 33.74     0.028 A 
ENDBRANCH  20  21
ENDBRANCH  19  20
ENDBRANCH  15  19
ENDBRANCH  11  12
ENDBRANCH   8  11
BRANCH   1  28
HETATM   28  C12   D T  91       6.177  11.784   2.821  1.00 40.70     0.100 A 
HETATM   29  C11   D T  91       6.166  10.767   3.744  1.00 42.97     0.026 A 
HETATM   30  C10   D T  91       7.374  10.605   4.169  1.00 44.99     0.024 A 
HETATM   31  C9    D T  91       8.149  11.508   3.535  1.00 47.90     0.114 A 
HETATM   32  O13   D T  91       7.435  12.355   2.613  1.00 44.76    -0.309 OA
BRANCH  31  33
HETATM   33  C8    D T  91       9.637  11.628   3.767  1.00 53.94     0.341 C 
BRANCH  33  34
HETATM   34  N7    D T  91      10.290  10.369   3.398  1.00 60.98     0.347 N 
BRANCH  34  35
HETATM   35  C6    D T  91      11.691  10.394   3.839  1.00 65.50     0.308 C 
BRANCH  35  36
HETATM   36  C5    D T  91      11.986   9.135   4.664  1.00 70.88     0.161 C 
BRANCH  36  37
HETATM   37  S2    D T  91      11.485   9.407   6.386  1.00 75.43     0.173 S 
HETATM   38  C1    D T  91      11.770  11.100   6.824  1.00 73.29     0.140 C 
HETATM   39  O3    D T  91      10.078   9.104   6.535  1.00 74.33    -0.226 OA
HETATM   40  O4    D T  91      12.260   8.549   7.253  1.00 74.26    -0.226 OA
ENDBRANCH  36  37
ENDBRANCH  35  36
ENDBRANCH  34  35
ENDBRANCH  33  34
ENDBRANCH  31  33
ENDBRANCH   1  28
TORSDOF 11
ENDMDL
MODEL 2
REMARK VINA RESULT:    -9.035      2.678      3.367
REMARK INTER + INTRA:         -16.581
REMARK INTER:                 -14.854
REMARK INTRA:                  -1.727
REMARK UNBOUND:                -1.736
REMARK  11 active torsions:
REMARK  status: ('A' for Active; 'I' for Inactive)
REMARK    1  A    between atoms: S2_2  and  C5_5 
REMARK    2  A    between atoms: C5_5  and  C6_6 
REMARK    3  A    between atoms: C6_6  and  N7_7 
REMARK    4  A    between atoms: N7_7  and  C8_8 
REMARK    5  A    between atoms: C8_8  and  C9_9 
REMARK    6  A    between atoms: C12_12  and  C14_14 
REMARK    7  A    between atoms: C21_21  and  N22_22 
REMARK    8  A    between atoms: N22_22  and  C23_23 
REMARK    9  A    between atoms: C26_26  and  O27_27 
REMARK   10  A    between atoms: O27_27  and  C28_28 
REMARK   11  A    between atoms: C28_28  and  C29_29 
ROOT
HETATM    1  C14   D T  91       3.720  11.995   2.043  1.00 38.14     0.023 A 
HETATM    2  C15   D T  91       2.440  11.491   2.265  1.00 35.17     0.004 A 
HETATM    3  C16   D T  91       1.390  11.928   1.496  1.00 34.68     0.019 A 
HETATM    4  C17   D T  91       1.595  12.877   0.496  1.00 33.31     0.086 A 
HETATM    5  N18   D T  91       0.527  13.304  -0.269  1.00 32.08    -0.224 NA
HETATM    6  C19   D T  91       0.715  14.244  -1.263  1.00 32.80     0.200 A 
HETATM    7  N20   D T  91       1.969  14.767  -1.498  1.00 33.06    -0.205 NA
HETATM    8  C21   D T  91       3.050  14.356  -0.744  1.00 33.11     0.166 A 
HETATM    9  C39   D T  91       2.861  13.395   0.269  1.00 33.77     0.054 A 
HETATM   10  C40   D T  91       3.928  12.962   1.036  1.00 34.65     0.006 A 
ENDROOT
BRANCH   8  11
HETATM   11  N22   D T  91       4.319  14.882  -0.982  1.00 33.98    -0.227 NA
BRANCH  11  12
HETATM   12  C23   D T  91       4.722  15.308  -2.260  1.00 33.25     0.084 A 
HETATM   13  C24   D T  91       5.610  14.532  -3.008  1.00 31.98     0.021 A 
HETATM   14  C25   D T  91       6.006  14.962  -4.271  1.00 31.39     0.027 A 
HETATM   15  C26   D T  91       5.514  16.160  -4.778  1.00 32.78     0.105 A 
HETATM   16  C36   D T  91       4.650  16.915  -4.039  1.00 33.04     0.082 A 
HETATM   17 CL3    D T  91       4.074  18.367  -4.689  1.00 34.74    -0.080 Cl
HETATM   18  C38   D T  91       4.247  16.505  -2.788  1.00 32.28     0.033 A 
BRANCH  15  19
HETATM   19  O27   D T  91       5.890  16.623  -6.066  1.00 32.72    -0.325 OA
BRANCH  19  20
HETATM   20  C28   D T  91       6.996  17.536  -6.046  1.00 34.20     0.175 C 
BRANCH  20  21
HETATM   21  C29   D T  91       8.292  16.879  -6.557  1.00 33.41     0.010 A 
HETATM   22  C30   D T  91       9.355  16.715  -5.696  1.00 32.49    -0.002 A 
HETATM   23  C31   D T  91      10.520  16.123  -6.141  1.00 32.79     0.002 A 
HETATM   24  C32   D T  91      10.621  15.691  -7.447  1.00 32.60     0.030 A 
HETATM   25  C33   D T  91       9.563  15.851  -8.310  1.00 33.26     0.140 A 
HETATM   26  F34   D T  91       9.664  15.434  -9.552  1.00 33.03    -0.204 F 
HETATM   27  C35   D T  91       8.398  16.444  -7.877  1.00 33.74     0.028 A 
ENDBRANCH  20  21
ENDBRANCH  19  20
ENDBRANCH  15  19
ENDBRANCH  11  12
ENDBRANCH   8  11
BRANCH   1  28
HETATM   28  C12   D T  91       4.848  11.506   2.841  1.00 40.70     0.100 A 
HETATM   29  C11   D T  91       4.710  10.574   3.841  1.00 42.97     0.026 A 
HETATM   30  C10   D T  91       5.884  10.334   4.321  1.00 44.99     0.024 A 
HETATM   31  C9    D T  91       6.762  11.104   3.647  1.00 47.90     0.114 A 
HETATM   32  O13   D T  91       6.161  11.935   2.635  1.00 44.76    -0.309 OA
BRANCH  31  33
HETATM   33  C8    D T  91       8.246  11.100   3.923  1.00 53.94     0.341 C 
BRANCH  33  34
HETATM   34  N7    D T  91       8.858  12.286   3.319  1.00 60.98     0.347 N 
BRANCH  34  35
HETATM   35  C6    D T  91       9.106  12.040   1.892  1.00 65.50     0.308 C 
BRANCH  35  36
HETATM   36  C5    D T  91       9.449  13.364   1.201  1.00 70.88     0.161 C 
BRANCH  36  37
HETATM   37  S2    D T  91       7.956  14.052   0.432  1.00 75.43     0.173 S 
HETATM   38  C1    D T  91       8.411  15.343  -0.692  1.00 73.29     0.140 C 
HETATM   39  O3    D T  91       7.260  13.010  -0.292  1.00 74.33    -0.226 OA
HETATM   40  O4    D T  91       7.091  14.589   1.457  1.00 74.26    -0.226 OA
ENDBRANCH  36  37
ENDBRANCH  35  36
ENDBRANCH  34  35
ENDBRANCH  33  34
ENDBRANCH  31  33
ENDBRANCH   1  28
TORSDOF 11
ENDMDL
MODEL 3
REMARK VINA RESULT:    -8.889      2.081      3.029
REMARK INTER + INTRA:         -16.342
REMARK INTER:                 -14.809
REMARK INTRA:                  -1.533
REMARK UNBOUND:                -1.736
REMARK  11 active torsions:
REMARK  status: ('A' for Active; 'I' for Inactive)
REMARK    1  A    between atoms: S2_2  and  C5_5 
REMARK    2  A    between atoms: C5_5  and  C6_6 
REMARK    3  A    between atoms: C6_6  and  N7_7 
REMARK    4  A    between atoms: N7_7  and  C8_8 
REMARK    5  A    between atoms: C8_8  and  C9_9 
REMARK    6  A    between atoms: C12_12  and  C14_14 
REMARK    7  A    between atoms: C21_21  and  N22_22 
REMARK    8  A    between atoms: N22_22  and  C23_23 
REMARK    9  A    between atoms: C26_26  and  O27_27 
REMARK   10  A    between atoms: O27_27  and  C28_28 
REMARK   11  A    between atoms: C28_28  and  C29_29 
ROOT
HETATM    1  C14   D T  91       6.736  11.260   3.552  1.00 38.14     0.023 A 
HETATM    2  C15   D T  91       5.764  10.437   4.116  1.00 35.17     0.004 A 
HETATM    3  C16   D T  91       4.452  10.565   3.732  1.00 34.68     0.019 A 
HETATM    4  C17   D T  91       4.083  11.520   2.786  1.00 33.31     0.086 A 
HETATM    5  N18   D T  91       2.759  11.635   2.411  1.00 32.08    -0.224 NA
HETATM    6  C19   D T  91       2.379  12.576   1.476  1.00 32.80     0.200 A 
HETATM    7  N20   D T  91       3.319  13.412   0.908  1.00 33.06    -0.205 NA
HETATM    8  C21   D T  91       4.648  13.315   1.269  1.00 33.11     0.166 A 
HETATM    9  C39   D T  91       5.038  12.354   2.222  1.00 33.77     0.054 A 
HETATM   10  C40   D T  91       6.364  12.233   2.598  1.00 34.65     0.006 A 
ENDROOT
BRANCH   8  11
HETATM   11  N22   D T  91       5.599  14.157   0.695  1.00 33.98    -0.227 NA
BRANCH  11  12
HETATM   12  C23   D T  91       5.646  14.395  -0.690  1.00 33.25     0.084 A 
HETATM   13  C24   D T  91       6.187  13.435  -1.547  1.00 31.98     0.021 A 
HETATM   14  C25   D T  91       6.232  13.679  -2.916  1.00 31.39     0.027 A 
HETATM   15  C26   D T  91       5.737  14.877  -3.420  1.00 32.78     0.105 A 
HETATM   16  C36   D T  91       5.214  15.812  -2.576  1.00 33.04     0.082 A 
HETATM   17 CL3    D T  91       4.624  17.259  -3.226  1.00 34.74    -0.080 Cl
HETATM   18  C38   D T  91       5.161  15.588  -1.218  1.00 32.28     0.033 A 
BRANCH  15  19
HETATM   19  O27   D T  91       5.759  15.154  -4.812  1.00 32.72    -0.325 OA
BRANCH  19  20
HETATM   20  C28   D T  91       6.976  14.751  -5.457  1.00 34.20     0.175 C 
BRANCH  20  21
HETATM   21  C29   D T  91       7.440  15.783  -6.502  1.00 33.41     0.010 A 
HETATM   22  C30   D T  91       6.673  16.903  -6.736  1.00 32.49    -0.002 A 
HETATM   23  C31   D T  91       7.082  17.838  -7.666  1.00 32.79     0.002 A 
HETATM   24  C32   D T  91       8.259  17.654  -8.360  1.00 32.60     0.030 A 
HETATM   25  C33   D T  91       9.030  16.540  -8.129  1.00 33.26     0.140 A 
HETATM   26  F34   D T  91      10.153  16.372  -8.790  1.00 33.03    -0.204 F 
HETATM   27  C35   D T  91       8.629  15.599  -7.206  1.00 33.74     0.028 A 
ENDBRANCH  20  21
ENDBRANCH  19  20
ENDBRANCH  15  19
ENDBRANCH  11  12
ENDBRANCH   8  11
BRANCH   1  28
HETATM   28  C12   D T  91       8.141  11.102   3.935  1.00 40.70     0.100 A 
HETATM   29  C11   D T  91       9.127  11.975   3.547  1.00 42.97     0.026 A 
HETATM   30  C10   D T  91      10.237  11.578   4.074  1.00 44.99     0.024 A 
HETATM   31  C9    D T  91       9.971  10.463   4.783  1.00 47.90     0.114 A 
HETATM   32  O13   D T  91       8.589  10.056   4.745  1.00 44.76    -0.309 OA
BRANCH  31  33
HETATM   33  C8    D T  91      11.024   9.703   5.553  1.00 53.94     0.341 C 
BRANCH  33  34
HETATM   34  N7    D T  91      12.324  10.355   5.375  1.00 60.98     0.347 N 
BRANCH  34  35
HETATM   35  C6    D T  91      13.321   9.713   6.242  1.00 65.50     0.308 C 
BRANCH  35  36
HETATM   36  C5    D T  91      13.056   8.203   6.287  1.00 70.88     0.161 C 
BRANCH  36  37
HETATM   37  S2    D T  91      14.252   7.345   5.226  1.00 75.43     0.173 S 
HETATM   38  C1    D T  91      15.677   6.900   6.182  1.00 73.29     0.140 C 
HETATM   39  O3    D T  91      13.647   6.148   4.683  1.00 74.33    -0.226 OA
HETATM   40  O4    D T  91      14.651   8.219   4.147  1.00 74.26    -0.226 OA
ENDBRANCH  36  37
ENDBRANCH  35  36
ENDBRANCH  34  35
ENDBRANCH  33  34
ENDBRANCH  31  33
ENDBRANCH   1  28
TORSDOF 11
ENDMDL
MODEL 4
REMARK VINA RESULT:    -8.886      4.780     10.524
REMARK INTER + INTRA:         -16.337
REMARK INTER:                 -14.408
REMARK INTRA:                  -1.929
REMARK UNBOUND:                -1.736
REMARK  11 active torsions:
REMARK  status: ('A' for Active; 'I' for Inactive)
REMARK    1  A    between atoms: S2_2  and  C5_5 
REMARK    2  A    between atoms: C5_5  and  C6_6 
REMARK    3  A    between atoms: C6_6  and  N7_7 
REMARK    4  A    between atoms: N7_7  and  C8_8 
REMARK    5  A    between atoms: C8_8  and  C9_9 
REMARK    6  A    between atoms: C12_12  and  C14_14 
REMARK    7  A    between atoms: C21_21  and  N22_22 
REMARK    8  A    between atoms: N22_22  and  C23_23 
REMARK    9  A    between atoms: C26_26  and  O27_27 
REMARK   10  A    between atoms: O27_27  and  C28_28 
REMARK   11  A    between atoms: C28_28  and  C29_29 
ROOT
HETATM    1  C14   D T  91       3.004  13.767  -0.522  1.00 38.14     0.023 A 
HETATM    2  C15   D T  91       1.871  13.028  -0.854  1.00 35.17     0.004 A 
HETATM    3  C16   D T  91       1.503  11.955  -0.080  1.00 34.68     0.019 A 
HETATM    4  C17   D T  91       2.260  11.595   1.033  1.00 33.31     0.086 A 
HETATM    5  N18   D T  91       1.875  10.513   1.801  1.00 32.08    -0.224 NA
HETATM    6  C19   D T  91       2.615  10.145   2.906  1.00 32.80     0.200 A 
HETATM    7  N20   D T  91       3.748  10.852   3.253  1.00 33.06    -0.205 NA
HETATM    8  C21   D T  91       4.152  11.936   2.498  1.00 33.11     0.166 A 
HETATM    9  C39   D T  91       3.397  12.315   1.371  1.00 33.77     0.054 A 
HETATM   10  C40   D T  91       3.777  13.400   0.602  1.00 34.65     0.006 A 
ENDROOT
BRANCH   8  11
HETATM   11  N22   D T  91       5.295  12.653   2.848  1.00 33.98    -0.227 NA
BRANCH  11  12
HETATM   12  C23   D T  91       6.582  12.094   2.761  1.00 33.25     0.084 A 
HETATM   13  C24   D T  91       7.378  12.339   1.640  1.00 31.98     0.021 A 
HETATM   14  C25   D T  91       8.650  11.780   1.561  1.00 31.39     0.027 A 
HETATM   15  C26   D T  91       9.119  10.983   2.599  1.00 32.78     0.105 A 
HETATM   16  C36   D T  91       8.335  10.745   3.690  1.00 33.04     0.082 A 
HETATM   17 CL3    D T  91       8.939   9.767   4.933  1.00 34.74    -0.080 Cl
HETATM   18  C38   D T  91       7.073  11.289   3.785  1.00 32.28     0.033 A 
BRANCH  15  19
HETATM   19  O27   D T  91      10.415  10.405   2.555  1.00 32.72    -0.325 OA
BRANCH  19  20
HETATM   20  C28   D T  91      11.472  11.353   2.758  1.00 34.20     0.175 C 
BRANCH  20  21
HETATM   21  C29   D T  91      11.783  11.553   4.254  1.00 33.41     0.010 A 
HETATM   22  C30   D T  91      12.490  10.586   4.934  1.00 32.49    -0.002 A 
HETATM   23  C31   D T  91      12.779  10.756   6.273  1.00 32.79     0.002 A 
HETATM   24  C32   D T  91      12.366  11.895   6.931  1.00 32.60     0.030 A 
HETATM   25  C33   D T  91      11.663  12.865   6.256  1.00 33.26     0.140 A 
HETATM   26  F34   D T  91      11.276  13.950   6.887  1.00 33.03    -0.204 F 
HETATM   27  C35   D T  91      11.365  12.702   4.921  1.00 33.74     0.028 A 
ENDBRANCH  20  21
ENDBRANCH  19  20
ENDBRANCH  15  19
ENDBRANCH  11  12
ENDBRANCH   8  11
BRANCH   1  28
HETATM   28  C12   D T  91       3.379  14.933  -1.327  1.00 40.70     0.100 A 
HETATM   29  C11   D T  91       2.487  15.909  -1.693  1.00 42.97     0.026 A 
HETATM   30  C10   D T  91       3.133  16.805  -2.361  1.00 44.99     0.024 A 
HETATM   31  C9    D T  91       4.419  16.407  -2.430  1.00 47.90     0.114 A 
HETATM   32  O13   D T  91       4.685  15.153  -1.772  1.00 44.76    -0.309 OA
BRANCH  31  33
HETATM   33  C8    D T  91       5.493  17.202  -3.135  1.00 53.94     0.341 C 
BRANCH  33  34
HETATM   34  N7    D T  91       6.738  16.430  -3.154  1.00 60.98     0.347 N 
BRANCH  34  35
HETATM   35  C6    D T  91       7.733  17.121  -3.986  1.00 65.50     0.308 C 
BRANCH  35  36
HETATM   36  C5    D T  91       7.026  17.800  -5.164  1.00 70.88     0.161 C 
BRANCH  36  37
HETATM   37  S2    D T  91       7.011  16.679  -6.591  1.00 75.43     0.173 S 
HETATM   38  C1    D T  91       8.605  15.925  -6.766  1.00 73.29     0.140 C 
HETATM   39  O3    D T  91       6.014  15.650  -6.389  1.00 74.33    -0.226 OA
HETATM   40  O4    D T  91       6.699  17.427  -7.787  1.00 74.26    -0.226 OA
ENDBRANCH  36  37
ENDBRANCH  35  36
ENDBRANCH  34  35
ENDBRANCH  33  34
ENDBRANCH  31  33
ENDBRANCH   1  28
TORSDOF 11
ENDMDL
MODEL 5
REMARK VINA RESULT:    -8.870      1.440      1.770
REMARK INTER + INTRA:         -16.311
REMARK INTER:                 -14.677
REMARK INTRA:                  -1.634
REMARK UNBOUND:                -1.736
REMARK  11 active torsions:
REMARK  status: ('A' for Active; 'I' for Inactive)
REMARK    1  A    between atoms: S2_2  and  C5_5 
REMARK    2  A    between atoms: C5_5  and  C6_6 
REMARK    3  A    between atoms: C6_6  and  N7_7 
REMARK    4  A    between atoms: N7_7  and  C8_8 
REMARK    5  A    between atoms: C8_8  and  C9_9 
REMARK    6  A    between atoms: C12_12  and  C14_14 
REMARK    7  A    between atoms: C21_21  and  N22_22 
REMARK    8  A    between atoms: N22_22  and  C23_23 
REMARK    9  A    between atoms: C26_26  and  O27_27 
REMARK   10  A    between atoms: O27_27  and  C28_28 
REMARK   11  A    between atoms: C28_28  and  C29_29 
ROOT
HETATM    1  C14   D T  91       4.449  12.258   1.872  1.00 38.14     0.023 A 
HETATM    2  C15   D T  91       3.258  11.582   2.131  1.00 35.17     0.004 A 
HETATM    3  C16   D T  91       2.129  11.886   1.411  1.00 34.68     0.019 A 
HETATM    4  C17   D T  91       2.163  12.872   0.427  1.00 33.31     0.086 A 
HETATM    5  N18   D T  91       1.018  13.164  -0.287  1.00 32.08    -0.224 NA
HETATM    6  C19   D T  91       1.037  14.138  -1.265  1.00 32.80     0.200 A 
HETATM    7  N20   D T  91       2.198  14.830  -1.536  1.00 33.06    -0.205 NA
HETATM    8  C21   D T  91       3.355  14.556  -0.832  1.00 33.11     0.166 A 
HETATM    9  C39   D T  91       3.338  13.561   0.165  1.00 33.77     0.054 A 
HETATM   10  C40   D T  91       4.484  13.263   0.880  1.00 34.65     0.006 A 
ENDROOT
BRANCH   8  11
HETATM   11  N22   D T  91       4.530  15.253  -1.106  1.00 33.98    -0.227 NA
BRANCH  11  12
HETATM   12  C23   D T  91       5.012  15.419  -2.416  1.00 33.25     0.084 A 
HETATM   13  C24   D T  91       5.831  14.443  -2.989  1.00 31.98     0.021 A 
HETATM   14  C25   D T  91       6.306  14.615  -4.285  1.00 31.39     0.027 A 
HETATM   15  C26   D T  91       5.961  15.756  -5.001  1.00 32.78     0.105 A 
HETATM   16  C36   D T  91       5.163  16.707  -4.434  1.00 33.04     0.082 A 
HETATM   17 CL3    D T  91       4.766  18.083  -5.335  1.00 34.74    -0.080 Cl
HETATM   18  C38   D T  91       4.684  16.553  -3.152  1.00 32.28     0.033 A 
BRANCH  15  19
HETATM   19  O27   D T  91       6.420  15.959  -6.329  1.00 32.72    -0.325 OA
BRANCH  19  20
HETATM   20  C28   D T  91       7.629  15.249  -6.631  1.00 34.20     0.175 C 
BRANCH  20  21
HETATM   21  C29   D T  91       8.759  16.201  -7.070  1.00 33.41     0.010 A 
HETATM   22  C30   D T  91       9.897  15.681  -7.646  1.00 32.49    -0.002 A 
HETATM   23  C31   D T  91      10.914  16.523  -8.048  1.00 32.79     0.002 A 
HETATM   24  C32   D T  91      10.791  17.886  -7.879  1.00 32.60     0.030 A 
HETATM   25  C33   D T  91       9.656  18.411  -7.307  1.00 33.26     0.140 A 
HETATM   26  F34   D T  91       9.542  19.710  -7.151  1.00 33.03    -0.204 F 
HETATM   27  C35   D T  91       8.638  17.578  -6.898  1.00 33.74     0.028 A 
ENDBRANCH  20  21
ENDBRANCH  19  20
ENDBRANCH  15  19
ENDBRANCH  11  12
ENDBRANCH   8  11
BRANCH   1  28
HETATM   28  C12   D T  91       5.663  11.913   2.616  1.00 40.70     0.100 A 
HETATM   29  C11   D T  91       5.695  10.946   3.591  1.00 42.97     0.026 A 
HETATM   30  C10   D T  91       6.909  10.861   4.024  1.00 44.99     0.024 A 
HETATM   31  C9    D T  91       7.644  11.764   3.344  1.00 47.90     0.114 A 
HETATM   32  O13   D T  91       6.894  12.528   2.379  1.00 44.76    -0.309 OA
BRANCH  31  33
HETATM   33  C8    D T  91       9.124  11.962   3.569  1.00 53.94     0.341 C 
BRANCH  33  34
HETATM   34  N7    D T  91       9.876  11.124   2.632  1.00 60.98     0.347 N 
BRANCH  34  35
HETATM   35  C6    D T  91      11.265  10.993   3.093  1.00 65.50     0.308 C 
BRANCH  35  36
HETATM   36  C5    D T  91      11.321  11.231   4.607  1.00 70.88     0.161 C 
BRANCH  36  37
HETATM   37  S2    D T  91      11.387   9.637   5.470  1.00 75.43     0.173 S 
HETATM   38  C1    D T  91       9.747   8.983   5.627  1.00 73.29     0.140 C 
HETATM   39  O3    D T  91      12.202   8.710   4.715  1.00 74.33    -0.226 OA
HETATM   40  O4    D T  91      11.957   9.824   6.784  1.00 74.26    -0.226 OA
ENDBRANCH  36  37
ENDBRANCH  35  36
ENDBRANCH  34  35
ENDBRANCH  33  34
ENDBRANCH  31  33
ENDBRANCH   1  28
TORSDOF 11
ENDMDL
MODEL 6
REMARK VINA RESULT:    -8.698      4.746     10.237
REMARK INTER + INTRA:         -16.027
REMARK INTER:                 -14.284
REMARK INTRA:                  -1.743
REMARK UNBOUND:                -1.736
REMARK  11 active torsions:
REMARK  status: ('A' for Active; 'I' for Inactive)
REMARK    1  A    between atoms: S2_2  and  C5_5 
REMARK    2  A    between atoms: C5_5  and  C6_6 
REMARK    3  A    between atoms: C6_6  and  N7_7 
REMARK    4  A    between atoms: N7_7  and  C8_8 
REMARK    5  A    between atoms: C8_8  and  C9_9 
REMARK    6  A    between atoms: C12_12  and  C14_14 
REMARK    7  A    between atoms: C21_21  and  N22_22 
REMARK    8  A    between atoms: N22_22  and  C23_23 
REMARK    9  A    between atoms: C26_26  and  O27_27 
REMARK   10  A    between atoms: O27_27  and  C28_28 
REMARK   11  A    between atoms: C28_28  and  C29_29 
ROOT
HETATM    1  C14   D T  91       2.783  14.006  -0.910  1.00 38.14     0.023 A 
HETATM    2  C15   D T  91       1.540  13.410  -1.110  1.00 35.17     0.004 A 
HETATM    3  C16   D T  91       1.122  12.404  -0.275  1.00 34.68     0.019 A 
HETATM    4  C17   D T  91       1.937  11.969   0.769  1.00 33.31     0.086 A 
HETATM    5  N18   D T  91       1.500  10.956   1.600  1.00 32.08    -0.224 NA
HETATM    6  C19   D T  91       2.296  10.515   2.638  1.00 32.80     0.200 A 
HETATM    7  N20   D T  91       3.536  11.080   2.853  1.00 33.06    -0.205 NA
HETATM    8  C21   D T  91       3.993  12.093   2.033  1.00 33.11     0.166 A 
HETATM    9  C39   D T  91       3.181  12.546   0.975  1.00 33.77     0.054 A 
HETATM   10  C40   D T  91       3.614  13.563   0.142  1.00 34.65     0.006 A 
ENDROOT
BRANCH   8  11
HETATM   11  N22   D T  91       5.245  12.667   2.250  1.00 33.98    -0.227 NA
BRANCH  11  12
HETATM   12  C23   D T  91       6.354  11.905   2.656  1.00 33.25     0.084 A 
HETATM   13  C24   D T  91       6.335  11.239   3.883  1.00 31.98     0.021 A 
HETATM   14  C25   D T  91       7.438  10.488   4.278  1.00 31.39     0.027 A 
HETATM   15  C26   D T  91       8.551  10.407   3.448  1.00 32.78     0.105 A 
HETATM   16  C36   D T  91       8.564  11.063   2.252  1.00 33.04     0.082 A 
HETATM   17 CL3    D T  91       9.936  10.942   1.269  1.00 34.74    -0.080 Cl
HETATM   18  C38   D T  91       7.481  11.811   1.845  1.00 32.28     0.033 A 
BRANCH  15  19
HETATM   19  O27   D T  91       9.689   9.643   3.816  1.00 32.72    -0.325 OA
BRANCH  19  20
HETATM   20  C28   D T  91       9.699   9.260   5.199  1.00 34.20     0.175 C 
BRANCH  20  21
HETATM   21  C29   D T  91      10.972   9.744   5.919  1.00 33.41     0.010 A 
HETATM   22  C30   D T  91      11.024  11.029   6.413  1.00 32.49    -0.002 A 
HETATM   23  C31   D T  91      12.157  11.473   7.065  1.00 32.79     0.002 A 
HETATM   24  C32   D T  91      13.237  10.631   7.227  1.00 32.60     0.030 A 
HETATM   25  C33   D T  91      13.190   9.347   6.738  1.00 33.26     0.140 A 
HETATM   26  F34   D T  91      14.219   8.547   6.898  1.00 33.03    -0.204 F 
HETATM   27  C35   D T  91      12.065   8.896   6.082  1.00 33.74     0.028 A 
ENDBRANCH  20  21
ENDBRANCH  19  20
ENDBRANCH  15  19
ENDBRANCH  11  12
ENDBRANCH   8  11
BRANCH   1  28
HETATM   28  C12   D T  91       3.217  15.103  -1.780  1.00 40.70     0.100 A 
HETATM   29  C11   D T  91       2.627  16.343  -1.773  1.00 42.97     0.026 A 
HETATM   30  C10   D T  91       3.257  17.085  -2.621  1.00 44.99     0.024 A 
HETATM   31  C9    D T  91       4.232  16.333  -3.171  1.00 47.90     0.114 A 
HETATM   32  O13   D T  91       4.281  14.980  -2.677  1.00 44.76    -0.309 OA
BRANCH  31  33
HETATM   33  C8    D T  91       5.191  16.856  -4.213  1.00 53.94     0.341 C 
BRANCH  33  34
HETATM   34  N7    D T  91       6.457  17.221  -3.572  1.00 60.98     0.347 N 
BRANCH  34  35
HETATM   35  C6    D T  91       7.324  16.038  -3.485  1.00 65.50     0.308 C 
BRANCH  35  36
HETATM   36  C5    D T  91       8.246  16.173  -2.268  1.00 70.88     0.161 C 
BRANCH  36  37
HETATM   37  S2    D T  91       7.555  15.237  -0.875  1.00 75.43     0.173 S 
HETATM   38  C1    D T  91       6.274  16.188  -0.103  1.00 73.29     0.140 C 
HETATM   39  O3    D T  91       7.002  13.990  -1.356  1.00 74.33    -0.226 OA
HETATM   40  O4    D T  91       8.598  14.965   0.087  1.00 74.26    -0.226 OA
ENDBRANCH  36  37
ENDBRANCH  35  36
ENDBRANCH  34  35
ENDBRANCH  33  34
ENDBRANCH  31  33
ENDBRANCH   1  28
TORSDOF 11
ENDMDL
MODEL 7
REMARK VINA RESULT:    -8.498      5.470      9.486
REMARK INTER + INTRA:         -15.699
REMARK INTER:                 -13.415
REMARK INTRA:                  -2.285
REMARK UNBOUND:                -1.736
REMARK  11 active torsions:
REMARK  status: ('A' for Active; 'I' for Inactive)
REMARK    1  A    between atoms: S2_2  and  C5_5 
REMARK    2  A    between atoms: C5_5  and  C6_6 
REMARK    3  A    between atoms: C6_6  and  N7_7 
REMARK    4  A    between atoms: N7_7  and  C8_8 
REMARK    5  A    between atoms: C8_8  and  C9_9 
REMARK    6  A    between atoms: C12_12  and  C14_14 
REMARK    7  A    between atoms: C21_21  and  N22_22 
REMARK    8  A    between atoms: N22_22  and  C23_23 
REMARK    9  A    between atoms: C26_26  and  O27_27 
REMARK   10  A    between atoms: O27_27  and  C28_28 
REMARK   11  A    between atoms: C28_28  and  C29_29 
ROOT
HETATM    1  C14   D T  91      10.914  15.473  -5.810  1.00 38.14     0.023 A 
HETATM    2  C15   D T  91      11.058  15.613  -7.188  1.00 35.17     0.004 A 
HETATM    3  C16   D T  91      10.053  16.189  -7.926  1.00 34.68     0.019 A 
HETATM    4  C17   D T  91       8.886  16.629  -7.305  1.00 33.31     0.086 A 
HETATM    5  N18   D T  91       7.886  17.206  -8.063  1.00 32.08    -0.224 NA
HETATM    6  C19   D T  91       6.723  17.647  -7.462  1.00 32.80     0.200 A 
HETATM    7  N20   D T  91       6.549  17.512  -6.101  1.00 33.06    -0.205 NA
HETATM    8  C21   D T  91       7.536  16.936  -5.324  1.00 33.11     0.166 A 
HETATM    9  C39   D T  91       8.723  16.488  -5.935  1.00 33.77     0.054 A 
HETATM   10  C40   D T  91       9.729  15.912  -5.180  1.00 34.65     0.006 A 
ENDROOT
BRANCH   8  11
HETATM   11  N22   D T  91       7.362  16.801  -3.948  1.00 33.98    -0.227 NA
BRANCH  11  12
HETATM   12  C23   D T  91       6.454  15.880  -3.397  1.00 33.25     0.084 A 
HETATM   13  C24   D T  91       5.087  16.165  -3.389  1.00 31.98     0.021 A 
HETATM   14  C25   D T  91       4.195  15.248  -2.840  1.00 31.39     0.027 A 
HETATM   15  C26   D T  91       4.671  14.057  -2.305  1.00 32.78     0.105 A 
HETATM   16  C36   D T  91       6.009  13.787  -2.314  1.00 33.04     0.082 A 
HETATM   17 CL3    D T  91       6.551  12.327  -1.652  1.00 34.74    -0.080 Cl
HETATM   18  C38   D T  91       6.906  14.682  -2.853  1.00 32.28     0.033 A 
BRANCH  15  19
HETATM   19  O27   D T  91       3.788  13.096  -1.746  1.00 32.72    -0.325 OA
BRANCH  19  20
HETATM   20  C28   D T  91       3.040  13.590  -0.627  1.00 34.20     0.175 C 
BRANCH  20  21
HETATM   21  C29   D T  91       3.364  12.818   0.666  1.00 33.41     0.010 A 
HETATM   22  C30   D T  91       4.575  13.020   1.291  1.00 32.49    -0.002 A 
HETATM   23  C31   D T  91       4.875  12.338   2.453  1.00 32.79     0.002 A 
HETATM   24  C32   D T  91       3.962  11.456   2.993  1.00 32.60     0.030 A 
HETATM   25  C33   D T  91       2.751  11.252   2.375  1.00 33.26     0.140 A 
HETATM   26  F34   D T  91       1.883  10.414   2.896  1.00 33.03    -0.204 F 
HETATM   27  C35   D T  91       2.444  11.925   1.212  1.00 33.74     0.028 A 
ENDBRANCH  20  21
ENDBRANCH  19  20
ENDBRANCH  15  19
ENDBRANCH  11  12
ENDBRANCH   8  11
BRANCH   1  28
HETATM   28  C12   D T  91      11.999  14.889  -5.016  1.00 40.70     0.100 A 
HETATM   29  C11   D T  91      13.104  14.299  -5.578  1.00 42.97     0.026 A 
HETATM   30  C10   D T  91      13.881  13.920  -4.618  1.00 44.99     0.024 A 
HETATM   31  C9    D T  91      13.281  14.254  -3.457  1.00 47.90     0.114 A 
HETATM   32  O13   D T  91      12.004  14.903  -3.619  1.00 44.76    -0.309 OA
BRANCH  31  33
HETATM   33  C8    D T  91      13.888  13.974  -2.104  1.00 53.94     0.341 C 
BRANCH  33  34
HETATM   34  N7    D T  91      13.037  14.550  -1.059  1.00 60.98     0.347 N 
BRANCH  34  35
HETATM   35  C6    D T  91      13.577  15.853  -0.647  1.00 65.50     0.308 C 
BRANCH  35  36
HETATM   36  C5    D T  91      12.459  16.688  -0.013  1.00 70.88     0.161 C 
BRANCH  36  37
HETATM   37  S2    D T  91      11.695  17.739  -1.279  1.00 75.43     0.173 S 
HETATM   38  C1    D T  91      11.360  19.339  -0.595  1.00 73.29     0.140 C 
HETATM   39  O3    D T  91      12.596  17.878  -2.403  1.00 74.33    -0.226 OA
HETATM   40  O4    D T  91      10.458  17.137  -1.721  1.00 74.26    -0.226 OA
ENDBRANCH  36  37
ENDBRANCH  35  36
ENDBRANCH  34  35
ENDBRANCH  33  34
ENDBRANCH  31  33
ENDBRANCH   1  28
TORSDOF 11
ENDMDL
MODEL 8
REMARK VINA RESULT:    -8.485      4.425      8.847
REMARK INTER + INTRA:         -15.678
REMARK INTER:                 -13.990
REMARK INTRA:                  -1.689
REMARK UNBOUND:                -1.736
REMARK  11 active torsions:
REMARK  status: ('A' for Active; 'I' for Inactive)
REMARK    1  A    between atoms: S2_2  and  C5_5 
REMARK    2  A    between atoms: C5_5  and  C6_6 
REMARK    3  A    between atoms: C6_6  and  N7_7 
REMARK    4  A    between atoms: N7_7  and  C8_8 
REMARK    5  A    between atoms: C8_8  and  C9_9 
REMARK    6  A    between atoms: C12_12  and  C14_14 
REMARK    7  A    between atoms: C21_21  and  N22_22 
REMARK    8  A    between atoms: N22_22  and  C23_23 
REMARK    9  A    between atoms: C26_26  and  O27_27 
REMARK   10  A    between atoms: O27_27  and  C28_28 
REMARK   11  A    between atoms: C28_28  and  C29_29 
ROOT
HETATM    1  C14   D T  91      11.155  15.472  -5.762  1.00 38.14     0.023 A 
HETATM    2  C15   D T  91      11.366  15.575  -7.136  1.00 35.17     0.004 A 
HETATM    3  C16   D T  91      10.409  16.152  -7.933  1.00 34.68     0.019 A 
HETATM    4  C17   D T  91       9.222  16.628  -7.379  1.00 33.31     0.086 A 
HETATM    5  N18   D T  91       8.270  17.206  -8.197  1.00 32.08    -0.224 NA
HETATM    6  C19   D T  91       7.090  17.682  -7.663  1.00 32.80     0.200 A 
HETATM    7  N20   D T  91       6.850  17.584  -6.308  1.00 33.06    -0.205 NA
HETATM    8  C21   D T  91       7.787  17.009  -5.472  1.00 33.11     0.166 A 
HETATM    9  C39   D T  91       8.993  16.524  -6.016  1.00 33.77     0.054 A 
HETATM   10  C40   D T  91       9.950  15.948  -5.200  1.00 34.65     0.006 A 
ENDROOT
BRANCH   8  11
HETATM   11  N22   D T  91       7.546  16.910  -4.103  1.00 33.98    -0.227 NA
BRANCH  11  12
HETATM   12  C23   D T  91       6.385  16.304  -3.591  1.00 33.25     0.084 A 
HETATM   13  C24   D T  91       6.238  14.917  -3.645  1.00 31.98     0.021 A 
HETATM   14  C25   D T  91       5.085  14.325  -3.138  1.00 31.39     0.027 A 
HETATM   15  C26   D T  91       4.089  15.119  -2.582  1.00 32.78     0.105 A 
HETATM   16  C36   D T  91       4.238  16.475  -2.535  1.00 33.04     0.082 A 
HETATM   17 CL3    D T  91       3.004  17.409  -1.852  1.00 34.74    -0.080 Cl
HETATM   18  C38   D T  91       5.372  17.078  -3.032  1.00 32.28     0.033 A 
BRANCH  15  19
HETATM   19  O27   D T  91       2.905  14.547  -2.047  1.00 32.72    -0.325 OA
BRANCH  19  20
HETATM   20  C28   D T  91       3.106  13.250  -1.469  1.00 34.20     0.175 C 
BRANCH  20  21
HETATM   21  C29   D T  91       2.380  13.105  -0.118  1.00 33.41     0.010 A 
HETATM   22  C30   D T  91       1.499  14.084   0.286  1.00 32.49    -0.002 A 
HETATM   23  C31   D T  91       0.838  13.964   1.492  1.00 32.79     0.002 A 
HETATM   24  C32   D T  91       1.055  12.862   2.293  1.00 32.60     0.030 A 
HETATM   25  C33   D T  91       1.931  11.881   1.893  1.00 33.26     0.140 A 
HETATM   26  F34   D T  91       2.131  10.831   2.657  1.00 33.03    -0.204 F 
HETATM   27  C35   D T  91       2.599  11.994   0.693  1.00 33.74     0.028 A 
ENDBRANCH  20  21
ENDBRANCH  19  20
ENDBRANCH  15  19
ENDBRANCH  11  12
ENDBRANCH   8  11
BRANCH   1  28
HETATM   28  C12   D T  91      12.190  14.888  -4.905  1.00 40.70     0.100 A 
HETATM   29  C11   D T  91      13.241  14.153  -5.394  1.00 42.97     0.026 A 
HETATM   30  C10   D T  91      13.985  13.814  -4.395  1.00 44.99     0.024 A 
HETATM   31  C9    D T  91      13.418  14.317  -3.280  1.00 47.90     0.114 A 
HETATM   32  O13   D T  91      12.199  15.049  -3.517  1.00 44.76    -0.309 OA
BRANCH  31  33
HETATM   33  C8    D T  91      14.003  14.132  -1.900  1.00 53.94     0.341 C 
BRANCH  33  34
HETATM   34  N7    D T  91      13.072  13.357  -1.075  1.00 60.98     0.347 N 
BRANCH  34  35
HETATM   35  C6    D T  91      12.534  14.208  -0.006  1.00 65.50     0.308 C 
BRANCH  35  36
HETATM   36  C5    D T  91      12.680  13.487   1.339  1.00 70.88     0.161 C 
BRANCH  36  37
HETATM   37  S2    D T  91      11.218  12.456   1.637  1.00 75.43     0.173 S 
HETATM   38  C1    D T  91      11.049  12.158   3.375  1.00 73.29     0.140 C 
HETATM   39  O3    D T  91      10.037  13.137   1.151  1.00 74.33    -0.226 OA
HETATM   40  O4    D T  91      11.368  11.196   0.945  1.00 74.26    -0.226 OA
ENDBRANCH  36  37
ENDBRANCH  35  36
ENDBRANCH  34  35
ENDBRANCH  33  34
ENDBRANCH  31  33
ENDBRANCH   1  28
TORSDOF 11
ENDMDL
MODEL 9
REMARK VINA RESULT:    -8.416      5.411      9.253
REMARK INTER + INTRA:         -15.565
REMARK INTER:                 -13.627
REMARK INTRA:                  -1.938
REMARK UNBOUND:                -1.736
REMARK  11 active torsions:
REMARK  status: ('A' for Active; 'I' for Inactive)
REMARK    1  A    between atoms: S2_2  and  C5_5 
REMARK    2  A    between atoms: C5_5  and  C6_6 
REMARK    3  A    between atoms: C6_6  and  N7_7 
REMARK    4  A    between atoms: N7_7  and  C8_8 
REMARK    5  A    between atoms: C8_8  and  C9_9 
REMARK    6  A    between atoms: C12_12  and  C14_14 
REMARK    7  A    between atoms: C21_21  and  N22_22 
REMARK    8  A    between atoms: N22_22  and  C23_23 
REMARK    9  A    between atoms: C26_26  and  O27_27 
REMARK   10  A    between atoms: O27_27  and  C28_28 
REMARK   11  A    between atoms: C28_28  and  C29_29 
ROOT
HETATM    1  C14   D T  91      10.912  15.431  -5.784  1.00 38.14     0.023 A 
HETATM    2  C15   D T  91      11.101  15.652  -7.146  1.00 35.17     0.004 A 
HETATM    3  C16   D T  91      10.109  16.246  -7.886  1.00 34.68     0.019 A 
HETATM    4  C17   D T  91       8.910  16.624  -7.285  1.00 33.31     0.086 A 
HETATM    5  N18   D T  91       7.923  17.221  -8.045  1.00 32.08    -0.224 NA
HETATM    6  C19   D T  91       6.730  17.601  -7.464  1.00 32.80     0.200 A 
HETATM    7  N20   D T  91       6.512  17.385  -6.119  1.00 33.06    -0.205 NA
HETATM    8  C21   D T  91       7.484  16.787  -5.341  1.00 33.11     0.166 A 
HETATM    9  C39   D T  91       8.703  16.402  -5.932  1.00 33.77     0.054 A 
HETATM   10  C40   D T  91       9.695  15.806  -5.174  1.00 34.65     0.006 A 
ENDROOT
BRANCH   8  11
HETATM   11  N22   D T  91       7.265  16.570  -3.981  1.00 33.98    -0.227 NA
BRANCH  11  12
HETATM   12  C23   D T  91       6.223  15.750  -3.515  1.00 33.25     0.084 A 
HETATM   13  C24   D T  91       6.370  14.361  -3.518  1.00 31.98     0.021 A 
HETATM   14  C25   D T  91       5.333  13.557  -3.057  1.00 31.39     0.027 A 
HETATM   15  C26   D T  91       4.158  14.141  -2.596  1.00 32.78     0.105 A 
HETATM   16  C36   D T  91       4.020  15.498  -2.599  1.00 33.04     0.082 A 
HETATM   17 CL3    D T  91       2.576  16.174  -2.032  1.00 34.74    -0.080 Cl
HETATM   18  C38   D T  91       5.036  16.310  -3.052  1.00 32.28     0.033 A 
BRANCH  15  19
HETATM   19  O27   D T  91       3.084  13.350  -2.110  1.00 32.72    -0.325 OA
BRANCH  19  20
HETATM   20  C28   D T  91       3.202  13.016  -0.720  1.00 34.20     0.175 C 
BRANCH  20  21
HETATM   21  C29   D T  91       1.860  13.161   0.021  1.00 33.41     0.010 A 
HETATM   22  C30   D T  91       1.847  13.202   1.398  1.00 32.49    -0.002 A 
HETATM   23  C31   D T  91       0.651  13.337   2.074  1.00 32.79     0.002 A 
HETATM   24  C32   D T  91      -0.533  13.435   1.373  1.00 32.60     0.030 A 
HETATM   25  C33   D T  91      -0.526  13.397  -0.001  1.00 33.26     0.140 A 
HETATM   26  F34   D T  91      -1.655  13.496  -0.665  1.00 33.03    -0.204 F 
HETATM   27  C35   D T  91       0.663  13.258  -0.685  1.00 33.74     0.028 A 
ENDBRANCH  20  21
ENDBRANCH  19  20
ENDBRANCH  15  19
ENDBRANCH  11  12
ENDBRANCH   8  11
BRANCH   1  28
HETATM   28  C12   D T  91      11.982  14.827  -4.985  1.00 40.70     0.100 A 
HETATM   29  C11   D T  91      13.067  14.195  -5.541  1.00 42.97     0.026 A 
HETATM   30  C10   D T  91      13.835  13.807  -4.579  1.00 44.99     0.024 A 
HETATM   31  C9    D T  91      13.251  14.178  -3.421  1.00 47.90     0.114 A 
HETATM   32  O13   D T  91      11.994  14.864  -3.589  1.00 44.76    -0.309 OA
BRANCH  31  33
HETATM   33  C8    D T  91      13.856  13.902  -2.066  1.00 53.94     0.341 C 
BRANCH  33  34
HETATM   34  N7    D T  91      14.902  14.889  -1.788  1.00 60.98     0.347 N 
BRANCH  34  35
HETATM   35  C6    D T  91      14.285  16.161  -1.383  1.00 65.50     0.308 C 
BRANCH  35  36
HETATM   36  C5    D T  91      13.992  16.126   0.121  1.00 70.88     0.161 C 
BRANCH  36  37
HETATM   37  S2    D T  91      12.208  16.314   0.395  1.00 75.43     0.173 S 
HETATM   38  C1    D T  91      11.486  17.168  -0.979  1.00 73.29     0.140 C 
HETATM   39  O3    D T  91      11.597  15.009   0.523  1.00 74.33    -0.226 OA
HETATM   40  O4    D T  91      11.985  17.074   1.604  1.00 74.26    -0.226 OA
ENDBRANCH  36  37
ENDBRANCH  35  36
ENDBRANCH  34  35
ENDBRANCH  33  34
ENDBRANCH  31  33
ENDBRANCH   1  28
TORSDOF 11
ENDMDL
