MODEL 1
REMARK VINA RESULT:    -9.417      0.000      0.000
REMARK INTER + INTRA:         -13.459
REMARK INTER:                 -12.720
REMARK INTRA:                  -0.740
REMARK UNBOUND:                -0.740
REMARK  6 active torsions:
REMARK  status: ('A' for Active; 'I' for Inactive)
REMARK    1  A    between atoms: NBC_2  and  CBB_4 
REMARK    2  A    between atoms: CBB_4  and  CBA_5 
REMARK    3  A    between atoms: CBA_5  and  CAY_6 
REMARK    4  A    between atoms: CAY_6  and  NAH_7 
REMARK    5  A    between atoms: CAG_15  and  CAI_16 
REMARK    6  A    between atoms: CAJ_22  and  CAK_23 
ROOT
HETATM    1  CAI   D T1001       3.770  13.543   0.322  1.00 35.40     0.064 A 
HETATM    2  CAT   D T1001       4.557  13.979  -0.863  1.00 36.13     0.282 A 
HETATM    3  OAZ   D T1001       5.805  13.730  -1.026  1.00 33.53    -0.265 OA
HETATM    4  NAU   D T1001       3.870  14.756  -1.730  1.00 33.87    -0.169 NA
HETATM    5  CAV   D T1001       2.620  14.806  -1.249  1.00 34.90     0.282 A 
HETATM    6  OAX   D T1001       1.709  15.459  -1.858  1.00 35.00    -0.265 OA
HETATM    7  CAJ   D T1001       2.428  14.071   0.022  1.00 32.88     0.064 A 
ENDROOT
BRANCH   1   8
HETATM    8  CAG   D T1001       4.252  12.586   1.382  1.00 35.34     0.023 A 
HETATM    9  CAW   D T1001       5.480  12.762   1.975  1.00 34.78     0.076 A 
HETATM   10  NAH   D T1001       5.554  11.787   2.930  1.00 36.88    -0.326 N 
HETATM   11  CAE   D T1001       4.429  11.060   2.972  1.00 36.88     0.060 A 
HETATM   12  CAF   D T1001       4.006   9.995   3.773  1.00 37.02     0.017 A 
HETATM   13  CAD   D T1001       3.549  11.573   2.016  1.00 36.79     0.017 A 
HETATM   14  CAA   D T1001       2.759   9.434   3.585  1.00 37.13     0.002 A 
HETATM   15  CAB   D T1001       1.888   9.935   2.601  1.00 38.67     0.000 A 
HETATM   16  CAC   D T1001       2.292  11.003   1.793  1.00 38.70     0.002 A 
BRANCH  10  17
HETATM   17  CAY   D T1001       6.700  11.609   3.801  1.00 39.32     0.108 C 
BRANCH  17  18
HETATM   18  CBA   D T1001       7.986  11.506   3.016  1.00 40.15     0.048 C 
BRANCH  18  19
HETATM   19  CBB   D T1001       8.338  10.030   3.107  1.00 46.58     0.099 C 
BRANCH  19  20
HETATM   20  NBC   D T1001       9.609   9.848   3.808  1.00 44.62    -0.365 N 
HETATM   21  CBD   D T1001      10.728  10.629   3.296  1.00 48.91     0.121 C 
HETATM   22  CBE   D T1001       9.783   8.998   4.976  1.00 49.55     0.121 C 
ENDBRANCH  19  20
ENDBRANCH  18  19
ENDBRANCH  17  18
ENDBRANCH  10  17
ENDBRANCH   1   8
BRANCH   7  23
HETATM   23  CAK   D T1001       1.126  13.945   0.755  1.00 34.11     0.025 A 
HETATM   24  CAM   D T1001      -0.142  13.659   0.212  1.00 33.58     0.019 A 
HETATM   25  CAP   D T1001      -0.596  13.384  -1.085  1.00 31.36     0.002 A 
HETATM   26  CAN   D T1001      -0.988  13.695   1.321  1.00 34.83     0.081 A 
HETATM   27  CAQ   D T1001      -1.951  13.139  -1.280  1.00 33.71     0.000 A 
HETATM   28  CAR   D T1001      -2.809  13.164  -0.180  1.00 32.72     0.002 A 
HETATM   29  CAS   D T1001      -2.357  13.430   1.125  1.00 35.56     0.019 A 
HETATM   30  NAO   D T1001      -0.246  13.970   2.444  1.00 33.95    -0.244 NA
HETATM   31  CAL   D T1001       1.070  14.127   2.136  1.00 33.68     0.099 A 
ENDBRANCH   7  23
TORSDOF 6
ENDMDL
MODEL 2
REMARK VINA RESULT:    -9.332      2.653      7.665
REMARK INTER + INTRA:         -13.345
REMARK INTER:                 -12.213
REMARK INTRA:                  -1.132
REMARK UNBOUND:                -0.740
REMARK  6 active torsions:
REMARK  status: ('A' for Active; 'I' for Inactive)
REMARK    1  A    between atoms: NBC_2  and  CBB_4 
REMARK    2  A    between atoms: CBB_4  and  CBA_5 
REMARK    3  A    between atoms: CBA_5  and  CAY_6 
REMARK    4  A    between atoms: CAY_6  and  NAH_7 
REMARK    5  A    between atoms: CAG_15  and  CAI_16 
REMARK    6  A    between atoms: CAJ_22  and  CAK_23 
ROOT
HETATM    1  CAI   D T1001       3.864  11.684   2.229  1.00 35.40     0.064 A 
HETATM    2  CAT   D T1001       3.261  10.619   3.075  1.00 36.13     0.282 A 
HETATM    3  OAZ   D T1001       2.031  10.260   3.007  1.00 33.53    -0.265 OA
HETATM    4  NAU   D T1001       4.097  10.112   4.007  1.00 33.87    -0.169 NA
HETATM    5  CAV   D T1001       5.277  10.710   3.790  1.00 34.90     0.282 A 
HETATM    6  OAX   D T1001       6.295  10.431   4.506  1.00 35.00    -0.265 OA
HETATM    7  CAJ   D T1001       5.262  11.702   2.692  1.00 32.88     0.064 A 
ENDROOT
BRANCH   1   8
HETATM    8  CAG   D T1001       3.195  12.339   1.047  1.00 35.34     0.023 A 
HETATM    9  CAW   D T1001       3.829  12.394  -0.171  1.00 34.78     0.076 A 
HETATM   10  NAH   D T1001       2.920  12.964  -1.018  1.00 36.88    -0.326 N 
HETATM   11  CAE   D T1001       1.765  13.219  -0.391  1.00 36.88     0.060 A 
HETATM   12  CAF   D T1001       0.544  13.756  -0.811  1.00 37.02     0.017 A 
HETATM   13  CAD   D T1001       1.890  12.791   0.934  1.00 36.79     0.017 A 
HETATM   14  CAA   D T1001      -0.499  13.900   0.081  1.00 37.13     0.002 A 
HETATM   15  CAB   D T1001      -0.358  13.494   1.420  1.00 38.67     0.000 A 
HETATM   16  CAC   D T1001       0.854  12.952   1.859  1.00 38.70     0.002 A 
BRANCH  10  17
HETATM   17  CAY   D T1001       3.185  13.212  -2.423  1.00 39.32     0.108 C 
BRANCH  17  18
HETATM   18  CBA   D T1001       4.648  13.491  -2.673  1.00 40.15     0.048 C 
BRANCH  18  19
HETATM   19  CBB   D T1001       4.650  14.916  -3.204  1.00 46.58     0.099 C 
BRANCH  19  20
HETATM   20  NBC   D T1001       4.426  15.868  -2.117  1.00 44.62    -0.365 N 
HETATM   21  CBD   D T1001       5.470  15.922  -1.101  1.00 48.91     0.121 C 
HETATM   22  CBE   D T1001       3.281  16.763  -2.038  1.00 49.55     0.121 C 
ENDBRANCH  19  20
ENDBRANCH  18  19
ENDBRANCH  17  18
ENDBRANCH  10  17
ENDBRANCH   1   8
BRANCH   7  23
HETATM   23  CAK   D T1001       6.451  12.489   2.227  1.00 34.11     0.025 A 
HETATM   24  CAM   D T1001       7.743  12.006   1.943  1.00 33.58     0.019 A 
HETATM   25  CAP   D T1001       8.322  10.731   1.963  1.00 31.36     0.002 A 
HETATM   26  CAN   D T1001       8.451  13.156   1.591  1.00 34.83     0.081 A 
HETATM   27  CAQ   D T1001       9.663  10.600   1.618  1.00 33.71     0.000 A 
HETATM   28  CAR   D T1001      10.383  11.739   1.256  1.00 32.72     0.002 A 
HETATM   29  CAS   D T1001       9.804  13.021   1.225  1.00 35.56     0.019 A 
HETATM   30  NAO   D T1001       7.609  14.239   1.651  1.00 33.95    -0.244 NA
HETATM   31  CAL   D T1001       6.358  13.867   2.037  1.00 33.68     0.099 A 
ENDBRANCH   7  23
TORSDOF 6
ENDMDL
MODEL 3
REMARK VINA RESULT:    -9.266      2.491      8.655
REMARK INTER + INTRA:         -13.255
REMARK INTER:                 -12.178
REMARK INTRA:                  -1.077
REMARK UNBOUND:                -0.740
REMARK  6 active torsions:
REMARK  status: ('A' for Active; 'I' for Inactive)
REMARK    1  A    between atoms: NBC_2  and  CBB_4 
REMARK    2  A    between atoms: CBB_4  and  CBA_5 
REMARK    3  A    between atoms: CBA_5  and  CAY_6 
REMARK    4  A    between atoms: CAY_6  and  NAH_7 
REMARK    5  A    between atoms: CAG_15  and  CAI_16 
REMARK    6  A    between atoms: CAJ_22  and  CAK_23 
ROOT
HETATM    1  CAI   D T1001       4.494  11.800   2.258  1.00 35.40     0.064 A 
HETATM    2  CAT   D T1001       3.870  10.792   3.157  1.00 36.13     0.282 A 
HETATM    3  OAZ   D T1001       2.623  10.490   3.139  1.00 33.53    -0.265 OA
HETATM    4  NAU   D T1001       4.712  10.273   4.077  1.00 33.87    -0.169 NA
HETATM    5  CAV   D T1001       5.911  10.807   3.804  1.00 34.90     0.282 A 
HETATM    6  OAX   D T1001       6.938  10.500   4.496  1.00 35.00    -0.265 OA
HETATM    7  CAJ   D T1001       5.907  11.765   2.676  1.00 32.88     0.064 A 
ENDROOT
BRANCH   1   8
HETATM    8  CAG   D T1001       3.819  12.451   1.078  1.00 35.34     0.023 A 
HETATM    9  CAW   D T1001       2.644  13.145   1.242  1.00 34.78     0.076 A 
HETATM   10  NAH   D T1001       2.365  13.666   0.010  1.00 36.88    -0.326 N 
HETATM   11  CAE   D T1001       3.322  13.358  -0.876  1.00 36.88     0.060 A 
HETATM   12  CAF   D T1001       3.514  13.669  -2.225  1.00 37.02     0.017 A 
HETATM   13  CAD   D T1001       4.298  12.610  -0.213  1.00 36.79     0.017 A 
HETATM   14  CAA   D T1001       4.627  13.203  -2.896  1.00 37.13     0.002 A 
HETATM   15  CAB   D T1001       5.592  12.426  -2.232  1.00 38.67     0.000 A 
HETATM   16  CAC   D T1001       5.419  12.107  -0.881  1.00 38.70     0.002 A 
BRANCH  10  17
HETATM   17  CAY   D T1001       1.196  14.479  -0.268  1.00 39.32     0.108 C 
BRANCH  17  18
HETATM   18  CBA   D T1001       0.099  13.673  -0.923  1.00 40.15     0.048 C 
BRANCH  18  19
HETATM   19  CBB   D T1001      -0.865  13.395   0.219  1.00 46.58     0.099 C 
BRANCH  19  20
HETATM   20  NBC   D T1001      -2.229  13.249  -0.286  1.00 44.62    -0.365 N 
HETATM   21  CBD   D T1001      -3.250  14.008   0.427  1.00 48.91     0.121 C 
HETATM   22  CBE   D T1001      -2.588  12.454  -1.450  1.00 49.55     0.121 C 
ENDBRANCH  19  20
ENDBRANCH  18  19
ENDBRANCH  17  18
ENDBRANCH  10  17
ENDBRANCH   1   8
BRANCH   7  23
HETATM   23  CAK   D T1001       7.115  12.479   2.148  1.00 34.11     0.025 A 
HETATM   24  CAM   D T1001       8.388  11.936   1.886  1.00 33.58     0.019 A 
HETATM   25  CAP   D T1001       8.925  10.646   1.986  1.00 31.36     0.002 A 
HETATM   26  CAN   D T1001       9.129  13.035   1.451  1.00 34.83     0.081 A 
HETATM   27  CAQ   D T1001      10.257  10.448   1.639  1.00 33.71     0.000 A 
HETATM   28  CAR   D T1001      11.010  11.536   1.194  1.00 32.72     0.002 A 
HETATM   29  CAS   D T1001      10.473  12.831   1.083  1.00 35.56     0.019 A 
HETATM   30  NAO   D T1001       8.323  14.147   1.446  1.00 33.95    -0.244 NA
HETATM   31  CAL   D T1001       7.065  13.844   1.867  1.00 33.68     0.099 A 
ENDBRANCH   7  23
TORSDOF 6
ENDMDL
MODEL 4
REMARK VINA RESULT:    -9.265      2.123      4.289
REMARK INTER + INTRA:         -13.254
REMARK INTER:                 -12.281
REMARK INTRA:                  -0.974
REMARK UNBOUND:                -0.740
REMARK  6 active torsions:
REMARK  status: ('A' for Active; 'I' for Inactive)
REMARK    1  A    between atoms: NBC_2  and  CBB_4 
REMARK    2  A    between atoms: CBB_4  and  CBA_5 
REMARK    3  A    between atoms: CBA_5  and  CAY_6 
REMARK    4  A    between atoms: CAY_6  and  NAH_7 
REMARK    5  A    between atoms: CAG_15  and  CAI_16 
REMARK    6  A    between atoms: CAJ_22  and  CAK_23 
ROOT
HETATM    1  CAI   D T1001       2.666  13.028   0.703  1.00 35.40     0.064 A 
HETATM    2  CAT   D T1001       1.319  13.002   1.335  1.00 36.13     0.282 A 
HETATM    3  OAZ   D T1001       1.084  12.522   2.502  1.00 33.53    -0.265 OA
HETATM    4  NAU   D T1001       0.323  13.442   0.536  1.00 33.87    -0.169 NA
HETATM    5  CAV   D T1001       0.925  13.856  -0.589  1.00 34.90     0.282 A 
HETATM    6  OAX   D T1001       0.249  14.349  -1.551  1.00 35.00    -0.265 OA
HETATM    7  CAJ   D T1001       2.393  13.664  -0.598  1.00 32.88     0.064 A 
ENDROOT
BRANCH   1   8
HETATM    8  CAG   D T1001       3.961  12.699   1.401  1.00 35.34     0.023 A 
HETATM    9  CAW   D T1001       5.075  13.481   1.208  1.00 34.78     0.076 A 
HETATM   10  NAH   D T1001       6.023  12.959   2.043  1.00 36.88    -0.326 N 
HETATM   11  CAE   D T1001       5.533  11.934   2.754  1.00 36.88     0.060 A 
HETATM   12  CAF   D T1001       6.077  11.106   3.741  1.00 37.02     0.017 A 
HETATM   13  CAD   D T1001       4.192  11.764   2.398  1.00 36.79     0.017 A 
HETATM   14  CAA   D T1001       5.312  10.110   4.314  1.00 37.13     0.002 A 
HETATM   15  CAB   D T1001       3.972   9.924   3.930  1.00 38.67     0.000 A 
HETATM   16  CAC   D T1001       3.409  10.745   2.948  1.00 38.70     0.002 A 
BRANCH  10  17
HETATM   17  CAY   D T1001       7.368  13.490   2.155  1.00 39.32     0.108 C 
BRANCH  17  18
HETATM   18  CBA   D T1001       8.247  13.025   1.018  1.00 40.15     0.048 C 
BRANCH  18  19
HETATM   19  CBB   D T1001       9.573  12.723   1.699  1.00 46.58     0.099 C 
BRANCH  19  20
HETATM   20  NBC   D T1001       9.490  11.473   2.452  1.00 44.62    -0.365 N 
HETATM   21  CBD   D T1001       9.100  10.298   1.682  1.00 48.91     0.121 C 
HETATM   22  CBE   D T1001       9.815  11.348   3.865  1.00 49.55     0.121 C 
ENDBRANCH  19  20
ENDBRANCH  18  19
ENDBRANCH  17  18
ENDBRANCH  10  17
ENDBRANCH   1   8
BRANCH   7  23
HETATM   23  CAK   D T1001       3.306  14.066  -1.717  1.00 34.11     0.025 A 
HETATM   24  CAM   D T1001       3.519  15.360  -2.230  1.00 33.58     0.019 A 
HETATM   25  CAP   D T1001       3.022  16.626  -1.891  1.00 31.36     0.002 A 
HETATM   26  CAN   D T1001       4.427  15.154  -3.269  1.00 34.83     0.081 A 
HETATM   27  CAQ   D T1001       3.450  17.729  -2.623  1.00 33.71     0.000 A 
HETATM   28  CAR   D T1001       4.363  17.541  -3.660  1.00 32.72     0.002 A 
HETATM   29  CAS   D T1001       4.872  16.274  -3.998  1.00 35.56     0.019 A 
HETATM   30  NAO   D T1001       4.734  13.817  -3.340  1.00 33.95    -0.244 NA
HETATM   31  CAL   D T1001       4.063  13.109  -2.391  1.00 33.68     0.099 A 
ENDBRANCH   7  23
TORSDOF 6
ENDMDL
MODEL 5
REMARK VINA RESULT:    -9.227      2.482      4.997
REMARK INTER + INTRA:         -13.203
REMARK INTER:                 -12.015
REMARK INTRA:                  -1.187
REMARK UNBOUND:                -0.740
REMARK  6 active torsions:
REMARK  status: ('A' for Active; 'I' for Inactive)
REMARK    1  A    between atoms: NBC_2  and  CBB_4 
REMARK    2  A    between atoms: CBB_4  and  CBA_5 
REMARK    3  A    between atoms: CBA_5  and  CAY_6 
REMARK    4  A    between atoms: CAY_6  and  NAH_7 
REMARK    5  A    between atoms: CAG_15  and  CAI_16 
REMARK    6  A    between atoms: CAJ_22  and  CAK_23 
ROOT
HETATM    1  CAI   D T1001       2.637  13.029   0.704  1.00 35.40     0.064 A 
HETATM    2  CAT   D T1001       1.301  12.978   1.356  1.00 36.13     0.282 A 
HETATM    3  OAZ   D T1001       1.090  12.479   2.519  1.00 33.53    -0.265 OA
HETATM    4  NAU   D T1001       0.287  13.419   0.579  1.00 33.87    -0.169 NA
HETATM    5  CAV   D T1001       0.867  13.856  -0.548  1.00 34.90     0.282 A 
HETATM    6  OAX   D T1001       0.170  14.355  -1.493  1.00 35.00    -0.265 OA
HETATM    7  CAJ   D T1001       2.337  13.682  -0.583  1.00 32.88     0.064 A 
ENDROOT
BRANCH   1   8
HETATM    8  CAG   D T1001       3.947  12.706   1.377  1.00 35.34     0.023 A 
HETATM    9  CAW   D T1001       5.060  13.478   1.144  1.00 34.78     0.076 A 
HETATM   10  NAH   D T1001       6.024  12.966   1.966  1.00 36.88    -0.326 N 
HETATM   11  CAE   D T1001       5.546  11.957   2.707  1.00 36.88     0.060 A 
HETATM   12  CAF   D T1001       6.109  11.143   3.695  1.00 37.02     0.017 A 
HETATM   13  CAD   D T1001       4.197  11.788   2.385  1.00 36.79     0.017 A 
HETATM   14  CAA   D T1001       5.353  10.162   4.303  1.00 37.13     0.002 A 
HETATM   15  CAB   D T1001       4.003   9.976   3.955  1.00 38.67     0.000 A 
HETATM   16  CAC   D T1001       3.421  10.783   2.972  1.00 38.70     0.002 A 
BRANCH  10  17
HETATM   17  CAY   D T1001       7.374  13.492   2.037  1.00 39.32     0.108 C 
BRANCH  17  18
HETATM   18  CBA   D T1001       8.084  13.388   0.708  1.00 40.15     0.048 C 
BRANCH  18  19
HETATM   19  CBB   D T1001       8.453  14.828   0.391  1.00 46.58     0.099 C 
BRANCH  19  20
HETATM   20  NBC   D T1001       7.557  15.375  -0.627  1.00 44.62    -0.365 N 
HETATM   21  CBD   D T1001       7.730  14.839  -1.972  1.00 48.91     0.121 C 
HETATM   22  CBE   D T1001       6.512  16.350  -0.357  1.00 49.55     0.121 C 
ENDBRANCH  19  20
ENDBRANCH  18  19
ENDBRANCH  17  18
ENDBRANCH  10  17
ENDBRANCH   1   8
BRANCH   7  23
HETATM   23  CAK   D T1001       3.228  14.110  -1.709  1.00 34.11     0.025 A 
HETATM   24  CAM   D T1001       3.431  15.417  -2.195  1.00 33.58     0.019 A 
HETATM   25  CAP   D T1001       2.942  16.673  -1.816  1.00 31.36     0.002 A 
HETATM   26  CAN   D T1001       4.318  15.236  -3.257  1.00 34.83     0.081 A 
HETATM   27  CAQ   D T1001       3.356  17.794  -2.529  1.00 33.71     0.000 A 
HETATM   28  CAR   D T1001       4.248  17.631  -3.589  1.00 32.72     0.002 A 
HETATM   29  CAS   D T1001       4.749  16.372  -3.968  1.00 35.56     0.019 A 
HETATM   30  NAO   D T1001       4.622  13.901  -3.367  1.00 33.95    -0.244 NA
HETATM   31  CAL   D T1001       3.971  13.170  -2.422  1.00 33.68     0.099 A 
ENDBRANCH   7  23
TORSDOF 6
ENDMDL
MODEL 6
REMARK VINA RESULT:    -8.799      3.634      8.287
REMARK INTER + INTRA:         -12.626
REMARK INTER:                 -11.671
REMARK INTRA:                  -0.954
REMARK UNBOUND:                -0.740
REMARK  6 active torsions:
REMARK  status: ('A' for Active; 'I' for Inactive)
REMARK    1  A    between atoms: NBC_2  and  CBB_4 
REMARK    2  A    between atoms: CBB_4  and  CBA_5 
REMARK    3  A    between atoms: CBA_5  and  CAY_6 
REMARK    4  A    between atoms: CAY_6  and  NAH_7 
REMARK    5  A    between atoms: CAG_15  and  CAI_16 
REMARK    6  A    between atoms: CAJ_22  and  CAK_23 
ROOT
HETATM    1  CAI   D T1001       2.942  13.874  -1.132  1.00 35.40     0.064 A 
HETATM    2  CAT   D T1001       1.494  13.575  -0.964  1.00 36.13     0.282 A 
HETATM    3  OAZ   D T1001       0.552  14.275  -1.484  1.00 33.53    -0.265 OA
HETATM    4  NAU   D T1001       1.234  12.547  -0.126  1.00 33.87    -0.169 NA
HETATM    5  CAV   D T1001       2.433  12.061   0.224  1.00 34.90     0.282 A 
HETATM    6  OAX   D T1001       2.531  11.060   1.008  1.00 35.00    -0.265 OA
HETATM    7  CAJ   D T1001       3.580  12.797  -0.355  1.00 32.88     0.064 A 
ENDROOT
BRANCH   1   8
HETATM    8  CAG   D T1001       3.515  14.889  -2.087  1.00 35.34     0.023 A 
HETATM    9  CAW   D T1001       4.336  14.493  -3.117  1.00 34.78     0.076 A 
HETATM   10  NAH   D T1001       4.595  15.635  -3.822  1.00 36.88    -0.326 N 
HETATM   11  CAE   D T1001       3.948  16.686  -3.301  1.00 36.88     0.060 A 
HETATM   12  CAF   D T1001       3.861  18.034  -3.663  1.00 37.02     0.017 A 
HETATM   13  CAD   D T1001       3.207  16.236  -2.205  1.00 36.79     0.017 A 
HETATM   14  CAA   D T1001       3.093  18.908  -2.920  1.00 37.13     0.002 A 
HETATM   15  CAB   D T1001       2.373  18.455  -1.801  1.00 38.67     0.000 A 
HETATM   16  CAC   D T1001       2.444  17.110  -1.425  1.00 38.70     0.002 A 
BRANCH  10  17
HETATM   17  CAY   D T1001       5.435  15.669  -5.005  1.00 39.32     0.108 C 
BRANCH  17  18
HETATM   18  CBA   D T1001       6.900  15.756  -4.645  1.00 40.15     0.048 C 
BRANCH  18  19
HETATM   19  CBB   D T1001       7.356  17.034  -5.331  1.00 46.58     0.099 C 
BRANCH  19  20
HETATM   20  NBC   D T1001       7.849  16.746  -6.677  1.00 44.62    -0.365 N 
HETATM   21  CBD   D T1001       7.349  17.620  -7.732  1.00 48.91     0.121 C 
HETATM   22  CBE   D T1001       8.817  15.705  -6.987  1.00 49.55     0.121 C 
ENDBRANCH  19  20
ENDBRANCH  18  19
ENDBRANCH  17  18
ENDBRANCH  10  17
ENDBRANCH   1   8
BRANCH   7  23
HETATM   23  CAK   D T1001       5.022  12.445  -0.146  1.00 34.11     0.025 A 
HETATM   24  CAM   D T1001       5.688  12.238   1.077  1.00 33.58     0.019 A 
HETATM   25  CAP   D T1001       5.274  12.255   2.415  1.00 31.36     0.002 A 
HETATM   26  CAN   D T1001       7.004  11.976   0.693  1.00 34.83     0.081 A 
HETATM   27  CAQ   D T1001       6.214  12.002   3.409  1.00 33.71     0.000 A 
HETATM   28  CAR   D T1001       7.532  11.731   3.041  1.00 32.72     0.002 A 
HETATM   29  CAS   D T1001       7.951  11.704   1.698  1.00 35.56     0.019 A 
HETATM   30  NAO   D T1001       7.088  12.014  -0.677  1.00 33.95    -0.244 NA
HETATM   31  CAL   D T1001       5.880  12.297  -1.236  1.00 33.68     0.099 A 
ENDBRANCH   7  23
TORSDOF 6
ENDMDL
MODEL 7
REMARK VINA RESULT:    -8.720      2.153      4.739
REMARK INTER + INTRA:         -12.518
REMARK INTER:                 -11.667
REMARK INTRA:                  -0.851
REMARK UNBOUND:                -0.740
REMARK  6 active torsions:
REMARK  status: ('A' for Active; 'I' for Inactive)
REMARK    1  A    between atoms: NBC_2  and  CBB_4 
REMARK    2  A    between atoms: CBB_4  and  CBA_5 
REMARK    3  A    between atoms: CBA_5  and  CAY_6 
REMARK    4  A    between atoms: CAY_6  and  NAH_7 
REMARK    5  A    between atoms: CAG_15  and  CAI_16 
REMARK    6  A    between atoms: CAJ_22  and  CAK_23 
ROOT
HETATM    1  CAI   D T1001       2.810  13.134   0.788  1.00 35.40     0.064 A 
HETATM    2  CAT   D T1001       1.479  13.074   1.450  1.00 36.13     0.282 A 
HETATM    3  OAZ   D T1001       1.291  12.640   2.643  1.00 33.53    -0.265 OA
HETATM    4  NAU   D T1001       0.447  13.428   0.653  1.00 33.87    -0.169 NA
HETATM    5  CAV   D T1001       1.005  13.816  -0.502  1.00 34.90     0.282 A 
HETATM    6  OAX   D T1001       0.287  14.230  -1.471  1.00 35.00    -0.265 OA
HETATM    7  CAJ   D T1001       2.480  13.694  -0.535  1.00 32.88     0.064 A 
ENDROOT
BRANCH   1   8
HETATM    8  CAG   D T1001       4.133  12.901   1.471  1.00 35.34     0.023 A 
HETATM    9  CAW   D T1001       4.270  11.901   2.404  1.00 34.78     0.076 A 
HETATM   10  NAH   D T1001       5.594  11.916   2.747  1.00 36.88    -0.326 N 
HETATM   11  CAE   D T1001       6.267  12.838   2.047  1.00 36.88     0.060 A 
HETATM   12  CAF   D T1001       7.612  13.217   2.006  1.00 37.02     0.017 A 
HETATM   13  CAD   D T1001       5.366  13.466   1.182  1.00 36.79     0.017 A 
HETATM   14  CAA   D T1001       8.028  14.225   1.160  1.00 37.13     0.002 A 
HETATM   15  CAB   D T1001       7.112  14.873   0.313  1.00 38.67     0.000 A 
HETATM   16  CAC   D T1001       5.763  14.506   0.336  1.00 38.70     0.002 A 
BRANCH  10  17
HETATM   17  CAY   D T1001       6.177  11.010   3.718  1.00 39.32     0.108 C 
BRANCH  17  18
HETATM   18  CBA   D T1001       7.277  10.173   3.109  1.00 40.15     0.048 C 
BRANCH  18  19
HETATM   19  CBB   D T1001       8.385  10.237   4.148  1.00 46.58     0.099 C 
BRANCH  19  20
HETATM   20  NBC   D T1001       9.687  10.397   3.501  1.00 44.62    -0.365 N 
HETATM   21  CBD   D T1001       9.667  10.420   2.043  1.00 48.91     0.121 C 
HETATM   22  CBE   D T1001      10.939  10.578   4.219  1.00 49.55     0.121 C 
ENDBRANCH  19  20
ENDBRANCH  18  19
ENDBRANCH  17  18
ENDBRANCH  10  17
ENDBRANCH   1   8
BRANCH   7  23
HETATM   23  CAK   D T1001       3.351  14.084  -1.692  1.00 34.11     0.025 A 
HETATM   24  CAM   D T1001       3.545  15.374  -2.224  1.00 33.58     0.019 A 
HETATM   25  CAP   D T1001       3.064  16.643  -1.877  1.00 31.36     0.002 A 
HETATM   26  CAN   D T1001       4.412  15.157  -3.295  1.00 34.83     0.081 A 
HETATM   27  CAQ   D T1001       3.465  17.739  -2.633  1.00 33.71     0.000 A 
HETATM   28  CAR   D T1001       4.337  17.540  -3.704  1.00 32.72     0.002 A 
HETATM   29  CAS   D T1001       4.830  16.269  -4.051  1.00 35.56     0.019 A 
HETATM   30  NAO   D T1001       4.714  13.819  -3.367  1.00 33.95    -0.244 NA
HETATM   31  CAL   D T1001       4.079  13.120  -2.387  1.00 33.68     0.099 A 
ENDBRANCH   7  23
TORSDOF 6
ENDMDL
MODEL 8
REMARK VINA RESULT:    -8.622      3.673      6.723
REMARK INTER + INTRA:         -12.386
REMARK INTER:                 -10.986
REMARK INTRA:                  -1.400
REMARK UNBOUND:                -0.740
REMARK  6 active torsions:
REMARK  status: ('A' for Active; 'I' for Inactive)
REMARK    1  A    between atoms: NBC_2  and  CBB_4 
REMARK    2  A    between atoms: CBB_4  and  CBA_5 
REMARK    3  A    between atoms: CBA_5  and  CAY_6 
REMARK    4  A    between atoms: CAY_6  and  NAH_7 
REMARK    5  A    between atoms: CAG_15  and  CAI_16 
REMARK    6  A    between atoms: CAJ_22  and  CAK_23 
ROOT
HETATM    1  CAI   D T1001       4.508  15.775  -2.155  1.00 35.40     0.064 A 
HETATM    2  CAT   D T1001       3.459  16.827  -2.242  1.00 36.13     0.282 A 
HETATM    3  OAZ   D T1001       2.493  16.948  -1.406  1.00 33.53    -0.265 OA
HETATM    4  NAU   D T1001       3.546  17.606  -3.343  1.00 33.87    -0.169 NA
HETATM    5  CAV   D T1001       4.655  17.203  -3.978  1.00 34.90     0.282 A 
HETATM    6  OAX   D T1001       5.029  17.761  -5.062  1.00 35.00    -0.265 OA
HETATM    7  CAJ   D T1001       5.354  16.075  -3.323  1.00 32.88     0.064 A 
ENDROOT
BRANCH   1   8
HETATM    8  CAG   D T1001       4.713  14.846  -0.986  1.00 35.34     0.023 A 
HETATM    9  CAW   D T1001       5.823  14.969  -0.184  1.00 34.78     0.076 A 
HETATM   10  NAH   D T1001       5.646  14.045   0.808  1.00 36.88    -0.326 N 
HETATM   11  CAE   D T1001       4.479  13.401   0.672  1.00 36.88     0.060 A 
HETATM   12  CAF   D T1001       3.836  12.414   1.423  1.00 37.02     0.017 A 
HETATM   13  CAD   D T1001       3.829  13.921  -0.452  1.00 36.79     0.017 A 
HETATM   14  CAA   D T1001       2.603  11.931   1.031  1.00 37.13     0.002 A 
HETATM   15  CAB   D T1001       1.967  12.437  -0.116  1.00 38.67     0.000 A 
HETATM   16  CAC   D T1001       2.593  13.428  -0.879  1.00 38.70     0.002 A 
BRANCH  10  17
HETATM   17  CAY   D T1001       6.598  13.836   1.883  1.00 39.32     0.108 C 
BRANCH  17  18
HETATM   18  CBA   D T1001       7.524  12.679   1.590  1.00 40.15     0.048 C 
BRANCH  18  19
HETATM   19  CBB   D T1001       7.894  12.165   2.972  1.00 46.58     0.099 C 
BRANCH  19  20
HETATM   20  NBC   D T1001       7.333  10.833   3.191  1.00 44.62    -0.365 N 
HETATM   21  CBD   D T1001       8.129   9.722   2.680  1.00 48.91     0.121 C 
HETATM   22  CBE   D T1001       6.095  10.576   3.911  1.00 49.55     0.121 C 
ENDBRANCH  19  20
ENDBRANCH  18  19
ENDBRANCH  17  18
ENDBRANCH  10  17
ENDBRANCH   1   8
BRANCH   7  23
HETATM   23  CAK   D T1001       6.629  15.453  -3.810  1.00 34.11     0.025 A 
HETATM   24  CAM   D T1001       7.844  16.103  -4.102  1.00 33.58     0.019 A 
HETATM   25  CAP   D T1001       8.270  17.435  -4.022  1.00 31.36     0.002 A 
HETATM   26  CAN   D T1001       8.670  15.067  -4.542  1.00 34.83     0.081 A 
HETATM   27  CAQ   D T1001       9.572  17.744  -4.399  1.00 33.71     0.000 A 
HETATM   28  CAR   D T1001      10.413  16.719  -4.834  1.00 32.72     0.002 A 
HETATM   29  CAS   D T1001       9.994  15.378  -4.908  1.00 35.56     0.019 A 
HETATM   30  NAO   D T1001       7.974  13.884  -4.490  1.00 33.95    -0.244 NA
HETATM   31  CAL   D T1001       6.706  14.080  -4.037  1.00 33.68     0.099 A 
ENDBRANCH   7  23
TORSDOF 6
ENDMDL
MODEL 9
REMARK VINA RESULT:    -8.509      3.541      7.052
REMARK INTER + INTRA:         -12.234
REMARK INTER:                 -11.013
REMARK INTRA:                  -1.221
REMARK UNBOUND:                -0.740
REMARK  6 active torsions:
REMARK  status: ('A' for Active; 'I' for Inactive)
REMARK    1  A    between atoms: NBC_2  and  CBB_4 
REMARK    2  A    between atoms: CBB_4  and  CBA_5 
REMARK    3  A    between atoms: CBA_5  and  CAY_6 
REMARK    4  A    between atoms: CAY_6  and  NAH_7 
REMARK    5  A    between atoms: CAG_15  and  CAI_16 
REMARK    6  A    between atoms: CAJ_22  and  CAK_23 
ROOT
HETATM    1  CAI   D T1001       5.361  14.073   0.031  1.00 35.40     0.064 A 
HETATM    2  CAT   D T1001       6.365  13.883   1.112  1.00 36.13     0.282 A 
HETATM    3  OAZ   D T1001       7.562  14.345   1.068  1.00 33.53    -0.265 OA
HETATM    4  NAU   D T1001       5.948  13.091   2.124  1.00 33.87    -0.169 NA
HETATM    5  CAV   D T1001       4.672  12.794   1.841  1.00 34.90     0.282 A 
HETATM    6  OAX   D T1001       3.980  12.063   2.623  1.00 35.00    -0.265 OA
HETATM    7  CAJ   D T1001       4.184  13.365   0.565  1.00 32.88     0.064 A 
ENDROOT
BRANCH   1   8
HETATM    8  CAG   D T1001       5.521  14.991  -1.154  1.00 35.34     0.023 A 
HETATM    9  CAW   D T1001       6.620  14.890  -1.972  1.00 34.78     0.076 A 
HETATM   10  NAH   D T1001       6.401  15.795  -2.973  1.00 36.88    -0.326 N 
HETATM   11  CAE   D T1001       5.218  16.406  -2.826  1.00 36.88     0.060 A 
HETATM   12  CAF   D T1001       4.535  17.365  -3.580  1.00 37.02     0.017 A 
HETATM   13  CAD   D T1001       4.602  15.883  -1.686  1.00 36.79     0.017 A 
HETATM   14  CAA   D T1001       3.295  17.817  -3.174  1.00 37.13     0.002 A 
HETATM   15  CAB   D T1001       2.692  17.309  -2.010  1.00 38.67     0.000 A 
HETATM   16  CAC   D T1001       3.359  16.346  -1.244  1.00 38.70     0.002 A 
BRANCH  10  17
HETATM   17  CAY   D T1001       7.329  16.016  -4.066  1.00 39.32     0.108 C 
BRANCH  17  18
HETATM   18  CBA   D T1001       7.155  14.990  -5.161  1.00 40.15     0.048 C 
BRANCH  18  19
HETATM   19  CBB   D T1001       6.569  15.796  -6.310  1.00 46.58     0.099 C 
BRANCH  19  20
HETATM   20  NBC   D T1001       7.634  16.338  -7.152  1.00 44.62    -0.365 N 
HETATM   21  CBD   D T1001       7.343  17.615  -7.793  1.00 48.91     0.121 C 
HETATM   22  CBE   D T1001       8.936  15.712  -7.326  1.00 49.55     0.121 C 
ENDBRANCH  19  20
ENDBRANCH  18  19
ENDBRANCH  17  18
ENDBRANCH  10  17
ENDBRANCH   1   8
BRANCH   7  23
HETATM   23  CAK   D T1001       2.792  13.210   0.028  1.00 34.11     0.025 A 
HETATM   24  CAM   D T1001       1.580  13.407   0.717  1.00 33.58     0.019 A 
HETATM   25  CAP   D T1001       1.265  13.812   2.020  1.00 31.36     0.002 A 
HETATM   26  CAN   D T1001       0.609  13.095  -0.237  1.00 34.83     0.081 A 
HETATM   27  CAQ   D T1001      -0.074  13.905   2.386  1.00 33.71     0.000 A 
HETATM   28  CAR   D T1001      -1.056  13.604   1.443  1.00 32.72     0.002 A 
HETATM   29  CAS   D T1001      -0.746  13.206   0.129  1.00 35.56     0.019 A 
HETATM   30  NAO   D T1001       1.229  12.753  -1.414  1.00 33.95    -0.244 NA
HETATM   31  CAL   D T1001       2.583  12.817  -1.293  1.00 33.68     0.099 A 
ENDBRANCH   7  23
TORSDOF 6
ENDMDL
