MODEL 1
REMARK VINA RESULT:    -9.186      0.000      0.000
REMARK INTER + INTRA:         -13.485
REMARK INTER:                 -12.408
REMARK INTRA:                  -1.077
REMARK UNBOUND:                -1.077
REMARK  6 active torsions:
REMARK  status: ('A' for Active; 'I' for Inactive)
REMARK    1  A    between atoms: NBC_2  and  CBB_4 
REMARK    2  A    between atoms: CBB_4  and  CBA_5 
REMARK    3  A    between atoms: CBA_5  and  CAY_6 
REMARK    4  A    between atoms: CAY_6  and  NAH_7 
REMARK    5  A    between atoms: CAG_15  and  CAI_16 
REMARK    6  A    between atoms: CAJ_22  and  CAK_23 
ROOT
HETATM    1  CAI   D T1000       2.606  13.234   0.751  1.00 59.57     0.064 A 
HETATM    2  CAT   D T1000       1.220  13.172   1.280  1.00 60.04     0.282 A 
HETATM    3  OAZ   D T1000       0.920  12.737   2.445  1.00 63.91    -0.265 OA
HETATM    4  NAU   D T1000       0.269  13.617   0.439  1.00 59.30    -0.169 NA
HETATM    5  CAV   D T1000       0.904  13.992  -0.658  1.00 59.13     0.282 A 
HETATM    6  OAX   D T1000       0.245  14.468  -1.635  1.00 59.19    -0.265 OA
HETATM    7  CAJ   D T1000       2.389  13.807  -0.609  1.00 59.47     0.064 A 
ENDROOT
BRANCH   1   8
HETATM    8  CAG   D T1000       3.870  12.799   1.505  1.00 60.05     0.023 A 
HETATM    9  CAW   D T1000       5.063  13.486   1.318  1.00 61.31     0.076 A 
HETATM   10  NAH   D T1000       5.992  12.866   2.115  1.00 62.19    -0.326 N 
HETATM   11  CAE   D T1000       5.435  11.835   2.792  1.00 60.17     0.060 A 
HETATM   12  CAF   D T1000       5.946  10.888   3.737  1.00 59.69     0.017 A 
HETATM   13  CAD   D T1000       4.059  11.757   2.418  1.00 59.51     0.017 A 
HETATM   14  CAA   D T1000       5.108   9.898   4.287  1.00 60.21     0.002 A 
HETATM   15  CAB   D T1000       3.731   9.822   3.908  1.00 60.52     0.000 A 
HETATM   16  CAC   D T1000       3.195  10.754   2.967  1.00 59.56     0.002 A 
BRANCH  10  17
HETATM   17  CAY   D T1000       7.399  13.287   2.195  1.00 63.29     0.108 C 
BRANCH  17  18
HETATM   18  CBA   D T1000       8.107  12.929   0.895  1.00 66.90     0.048 C 
BRANCH  18  19
HETATM   19  CBB   D T1000       8.473  11.448   0.981  1.00 68.12     0.099 C 
BRANCH  19  20
HETATM   20  NBC   D T1000       9.663  11.176   1.825  1.00 69.41    -0.365 N 
HETATM   21  CBD   D T1000      10.918  11.645   1.264  1.00 71.44     0.121 C 
HETATM   22  CBE   D T1000       9.673  10.506   3.127  1.00 69.10     0.121 C 
ENDBRANCH  19  20
ENDBRANCH  18  19
ENDBRANCH  17  18
ENDBRANCH  10  17
ENDBRANCH   1   8
BRANCH   7  23
HETATM   23  CAK   D T1000       3.365  14.164  -1.724  1.00 59.62     0.025 A 
HETATM   24  CAM   D T1000       3.596  15.424  -2.370  1.00 60.49     0.019 A 
HETATM   25  CAP   D T1000       3.061  16.752  -2.237  1.00 60.58     0.002 A 
HETATM   26  CAN   D T1000       4.596  15.116  -3.326  1.00 61.04     0.081 A 
HETATM   27  CAQ   D T1000       3.534  17.787  -3.078  1.00 59.56     0.000 A 
HETATM   28  CAR   D T1000       4.531  17.485  -4.037  1.00 60.35     0.002 A 
HETATM   29  CAS   D T1000       5.079  16.170  -4.182  1.00 60.55     0.019 A 
HETATM   30  NAO   D T1000       4.911  13.781  -3.224  1.00 60.44    -0.244 NA
HETATM   31  CAL   D T1000       4.185  13.165  -2.264  1.00 59.16     0.099 A 
ENDBRANCH   7  23
TORSDOF 6
ENDMDL
MODEL 2
REMARK VINA RESULT:    -9.185      1.247      2.079
REMARK INTER + INTRA:         -13.484
REMARK INTER:                 -12.132
REMARK INTRA:                  -1.353
REMARK UNBOUND:                -1.077
REMARK  6 active torsions:
REMARK  status: ('A' for Active; 'I' for Inactive)
REMARK    1  A    between atoms: NBC_2  and  CBB_4 
REMARK    2  A    between atoms: CBB_4  and  CBA_5 
REMARK    3  A    between atoms: CBA_5  and  CAY_6 
REMARK    4  A    between atoms: CAY_6  and  NAH_7 
REMARK    5  A    between atoms: CAG_15  and  CAI_16 
REMARK    6  A    between atoms: CAJ_22  and  CAK_23 
ROOT
HETATM    1  CAI   D T1000       2.553  13.170   0.806  1.00 59.57     0.064 A 
HETATM    2  CAT   D T1000       1.192  13.000   1.376  1.00 60.04     0.282 A 
HETATM    3  OAZ   D T1000       0.960  12.513   2.535  1.00 63.91    -0.265 OA
HETATM    4  NAU   D T1000       0.187  13.406   0.579  1.00 59.30    -0.169 NA
HETATM    5  CAV   D T1000       0.759  13.854  -0.525  1.00 59.13     0.282 A 
HETATM    6  OAX   D T1000       0.039  14.314  -1.466  1.00 59.19    -0.265 OA
HETATM    7  CAJ   D T1000       2.254  13.767  -0.528  1.00 59.47     0.064 A 
ENDROOT
BRANCH   1   8
HETATM    8  CAG   D T1000       3.867  12.798   1.506  1.00 60.05     0.023 A 
HETATM    9  CAW   D T1000       5.022  13.526   1.251  1.00 61.31     0.076 A 
HETATM   10  NAH   D T1000       6.011  12.958   2.013  1.00 62.19    -0.326 N 
HETATM   11  CAE   D T1000       5.527  11.919   2.734  1.00 60.17     0.060 A 
HETATM   12  CAF   D T1000       6.119  11.011   3.670  1.00 59.69     0.017 A 
HETATM   13  CAD   D T1000       4.139  11.782   2.428  1.00 59.51     0.017 A 
HETATM   14  CAA   D T1000       5.346  10.001   4.278  1.00 60.21     0.002 A 
HETATM   15  CAB   D T1000       3.956   9.866   3.966  1.00 60.52     0.000 A 
HETATM   16  CAC   D T1000       3.341  10.758   3.035  1.00 59.56     0.002 A 
BRANCH  10  17
HETATM   17  CAY   D T1000       7.403  13.433   2.019  1.00 63.29     0.108 C 
BRANCH  17  18
HETATM   18  CBA   D T1000       7.963  13.367   0.605  1.00 66.90     0.048 C 
BRANCH  18  19
HETATM   19  CBB   D T1000       8.433  14.775   0.245  1.00 68.12     0.099 C 
BRANCH  19  20
HETATM   20  NBC   D T1000       7.558  15.463  -0.736  1.00 69.41    -0.365 N 
HETATM   21  CBD   D T1000       7.848  15.148  -2.125  1.00 71.44     0.121 C 
HETATM   22  CBE   D T1000       6.468  16.391  -0.432  1.00 69.10     0.121 C 
ENDBRANCH  19  20
ENDBRANCH  18  19
ENDBRANCH  17  18
ENDBRANCH  10  17
ENDBRANCH   1   8
BRANCH   7  23
HETATM   23  CAK   D T1000       3.168  14.220  -1.662  1.00 59.62     0.025 A 
HETATM   24  CAM   D T1000       3.345  15.526  -2.228  1.00 60.49     0.019 A 
HETATM   25  CAP   D T1000       2.795  16.830  -1.976  1.00 60.58     0.002 A 
HETATM   26  CAN   D T1000       4.301  15.306  -3.250  1.00 61.04     0.081 A 
HETATM   27  CAQ   D T1000       3.208  17.931  -2.763  1.00 59.56     0.000 A 
HETATM   28  CAR   D T1000       4.160  17.717  -3.788  1.00 60.35     0.002 A 
HETATM   29  CAS   D T1000       4.723  16.426  -4.052  1.00 60.55     0.019 A 
HETATM   30  NAO   D T1000       4.643  13.973  -3.257  1.00 60.44    -0.244 NA
HETATM   31  CAL   D T1000       3.976  13.277  -2.309  1.00 59.16     0.099 A 
ENDBRANCH   7  23
TORSDOF 6
ENDMDL
MODEL 3
REMARK VINA RESULT:    -8.976      2.763      5.867
REMARK INTER + INTRA:         -13.202
REMARK INTER:                 -11.663
REMARK INTRA:                  -1.539
REMARK UNBOUND:                -1.077
REMARK  6 active torsions:
REMARK  status: ('A' for Active; 'I' for Inactive)
REMARK    1  A    between atoms: NBC_2  and  CBB_4 
REMARK    2  A    between atoms: CBB_4  and  CBA_5 
REMARK    3  A    between atoms: CBA_5  and  CAY_6 
REMARK    4  A    between atoms: CAY_6  and  NAH_7 
REMARK    5  A    between atoms: CAG_15  and  CAI_16 
REMARK    6  A    between atoms: CAJ_22  and  CAK_23 
ROOT
HETATM    1  CAI   D T1000       5.515  14.043  -1.224  1.00 59.57     0.064 A 
HETATM    2  CAT   D T1000       6.352  13.300  -2.200  1.00 60.04     0.282 A 
HETATM    3  OAZ   D T1000       6.582  12.044  -2.131  1.00 63.91    -0.265 OA
HETATM    4  NAU   D T1000       6.866  14.047  -3.193  1.00 59.30    -0.169 NA
HETATM    5  CAV   D T1000       6.439  15.279  -2.976  1.00 59.13     0.282 A 
HETATM    6  OAX   D T1000       6.770  16.210  -3.776  1.00 59.19    -0.265 OA
HETATM    7  CAJ   D T1000       5.575  15.432  -1.763  1.00 59.47     0.064 A 
ENDROOT
BRANCH   1   8
HETATM    8  CAG   D T1000       4.807  13.432  -0.006  1.00 60.05     0.023 A 
HETATM    9  CAW   D T1000       3.421  13.467   0.084  1.00 61.31     0.076 A 
HETATM   10  NAH   D T1000       3.097  12.853   1.267  1.00 62.19    -0.326 N 
HETATM   11  CAE   D T1000       4.210  12.431   1.912  1.00 60.17     0.060 A 
HETATM   12  CAF   D T1000       4.430  11.744   3.149  1.00 59.69     0.017 A 
HETATM   13  CAD   D T1000       5.341  12.793   1.118  1.00 59.51     0.017 A 
HETATM   14  CAA   D T1000       5.736  11.431   3.575  1.00 60.21     0.002 A 
HETATM   15  CAB   D T1000       6.865  11.797   2.778  1.00 60.52     0.000 A 
HETATM   16  CAC   D T1000       6.675  12.484   1.539  1.00 59.56     0.002 A 
BRANCH  10  17
HETATM   17  CAY   D T1000       1.716  12.696   1.745  1.00 63.29     0.108 C 
BRANCH  17  18
HETATM   18  CBA   D T1000       0.916  13.944   1.397  1.00 66.90     0.048 C 
BRANCH  18  19
HETATM   19  CBB   D T1000      -0.561  13.572   1.507  1.00 68.12     0.099 C 
BRANCH  19  20
HETATM   20  NBC   D T1000      -1.271  13.559   0.204  1.00 69.41    -0.365 N 
HETATM   21  CBD   D T1000      -0.398  13.570  -0.957  1.00 71.44     0.121 C 
HETATM   22  CBE   D T1000      -2.721  13.532   0.002  1.00 69.10     0.121 C 
ENDBRANCH  19  20
ENDBRANCH  18  19
ENDBRANCH  17  18
ENDBRANCH  10  17
ENDBRANCH   1   8
BRANCH   7  23
HETATM   23  CAK   D T1000       4.940  16.733  -1.283  1.00 59.62     0.025 A 
HETATM   24  CAM   D T1000       3.867  17.493  -1.855  1.00 60.49     0.019 A 
HETATM   25  CAP   D T1000       3.015  17.350  -3.005  1.00 60.58     0.002 A 
HETATM   26  CAN   D T1000       3.750  18.597  -0.975  1.00 61.04     0.081 A 
HETATM   27  CAQ   D T1000       2.034  18.331  -3.279  1.00 59.56     0.000 A 
HETATM   28  CAR   D T1000       1.914  19.439  -2.405  1.00 60.35     0.002 A 
HETATM   29  CAS   D T1000       2.750  19.597  -1.252  1.00 60.55     0.019 A 
HETATM   30  NAO   D T1000       4.686  18.467   0.025  1.00 60.44    -0.244 NA
HETATM   31  CAL   D T1000       5.431  17.349  -0.125  1.00 59.16     0.099 A 
ENDBRANCH   7  23
TORSDOF 6
ENDMDL
MODEL 4
REMARK VINA RESULT:    -8.966      2.499      7.721
REMARK INTER + INTRA:         -13.188
REMARK INTER:                 -11.971
REMARK INTRA:                  -1.217
REMARK UNBOUND:                -1.077
REMARK  6 active torsions:
REMARK  status: ('A' for Active; 'I' for Inactive)
REMARK    1  A    between atoms: NBC_2  and  CBB_4 
REMARK    2  A    between atoms: CBB_4  and  CBA_5 
REMARK    3  A    between atoms: CBA_5  and  CAY_6 
REMARK    4  A    between atoms: CAY_6  and  NAH_7 
REMARK    5  A    between atoms: CAG_15  and  CAI_16 
REMARK    6  A    between atoms: CAJ_22  and  CAK_23 
ROOT
HETATM    1  CAI   D T1000       4.872  11.646   2.473  1.00 59.57     0.064 A 
HETATM    2  CAT   D T1000       4.351  10.676   3.469  1.00 60.04     0.282 A 
HETATM    3  OAZ   D T1000       3.118  10.353   3.572  1.00 63.91    -0.265 OA
HETATM    4  NAU   D T1000       5.281  10.137   4.277  1.00 59.30    -0.169 NA
HETATM    5  CAV   D T1000       6.433  10.670   3.910  1.00 59.13     0.282 A 
HETATM    6  OAX   D T1000       7.502  10.333   4.508  1.00 59.19    -0.265 OA
HETATM    7  CAJ   D T1000       6.332  11.648   2.780  1.00 59.47     0.064 A 
ENDROOT
BRANCH   1   8
HETATM    8  CAG   D T1000       4.030  12.396   1.430  1.00 60.05     0.023 A 
HETATM    9  CAW   D T1000       2.835  12.999   1.804  1.00 61.31     0.076 A 
HETATM   10  NAH   D T1000       2.325  13.576   0.670  1.00 62.19    -0.326 N 
HETATM   11  CAE   D T1000       3.146  13.371  -0.387  1.00 60.17     0.060 A 
HETATM   12  CAF   D T1000       3.091  13.756  -1.765  1.00 59.69     0.017 A 
HETATM   13  CAD   D T1000       4.262  12.604   0.068  1.00 59.51     0.017 A 
HETATM   14  CAA   D T1000       4.118  13.385  -2.656  1.00 60.21     0.002 A 
HETATM   15  CAB   D T1000       5.232  12.615  -2.197  1.00 60.52     0.000 A 
HETATM   16  CAC   D T1000       5.312  12.217  -0.827  1.00 59.56     0.002 A 
BRANCH  10  17
HETATM   17  CAY   D T1000       1.051  14.310   0.637  1.00 63.29     0.108 C 
BRANCH  17  18
HETATM   18  CBA   D T1000      -0.100  13.327   0.802  1.00 66.90     0.048 C 
BRANCH  18  19
HETATM   19  CBB   D T1000      -0.688  13.093  -0.589  1.00 68.12     0.099 C 
BRANCH  19  20
HETATM   20  NBC   D T1000      -2.168  13.204  -0.636  1.00 69.41    -0.365 N 
HETATM   21  CBD   D T1000      -2.790  12.481  -1.732  1.00 71.44     0.121 C 
HETATM   22  CBE   D T1000      -3.016  13.948   0.296  1.00 69.10     0.121 C 
ENDBRANCH  19  20
ENDBRANCH  18  19
ENDBRANCH  17  18
ENDBRANCH  10  17
ENDBRANCH   1   8
BRANCH   7  23
HETATM   23  CAK   D T1000       7.498  12.401   2.150  1.00 59.62     0.025 A 
HETATM   24  CAM   D T1000       8.822  11.944   1.839  1.00 60.49     0.019 A 
HETATM   25  CAP   D T1000       9.527  10.698   1.969  1.00 60.58     0.002 A 
HETATM   26  CAN   D T1000       9.440  13.097   1.297  1.00 61.04     0.081 A 
HETATM   27  CAQ   D T1000      10.876  10.608   1.552  1.00 59.56     0.000 A 
HETATM   28  CAR   D T1000      11.501  11.758   1.012  1.00 60.35     0.002 A 
HETATM   29  CAS   D T1000      10.814  13.006   0.871  1.00 60.55     0.019 A 
HETATM   30  NAO   D T1000       8.531  14.130   1.297  1.00 60.44    -0.244 NA
HETATM   31  CAL   D T1000       7.339  13.750   1.808  1.00 59.16     0.099 A 
ENDBRANCH   7  23
TORSDOF 6
ENDMDL
MODEL 5
REMARK VINA RESULT:    -8.947      1.768      6.649
REMARK INTER + INTRA:         -13.162
REMARK INTER:                 -12.176
REMARK INTRA:                  -0.986
REMARK UNBOUND:                -1.077
REMARK  6 active torsions:
REMARK  status: ('A' for Active; 'I' for Inactive)
REMARK    1  A    between atoms: NBC_2  and  CBB_4 
REMARK    2  A    between atoms: CBB_4  and  CBA_5 
REMARK    3  A    between atoms: CBA_5  and  CAY_6 
REMARK    4  A    between atoms: CAY_6  and  NAH_7 
REMARK    5  A    between atoms: CAG_15  and  CAI_16 
REMARK    6  A    between atoms: CAJ_22  and  CAK_23 
ROOT
HETATM    1  CAI   D T1000       2.841  13.795  -0.361  1.00 59.57     0.064 A 
HETATM    2  CAT   D T1000       1.376  13.562  -0.284  1.00 60.04     0.282 A 
HETATM    3  OAZ   D T1000       0.547  13.932  -1.184  1.00 63.91    -0.265 OA
HETATM    4  NAU   D T1000       0.961  12.916   0.820  1.00 59.30    -0.169 NA
HETATM    5  CAV   D T1000       2.049  12.677   1.531  1.00 59.13     0.282 A 
HETATM    6  OAX   D T1000       1.956  12.062   2.638  1.00 59.19    -0.265 OA
HETATM    7  CAJ   D T1000       3.317  13.178   0.911  1.00 59.47     0.064 A 
ENDROOT
BRANCH   1   8
HETATM    8  CAG   D T1000       3.574  14.500  -1.512  1.00 60.05     0.023 A 
HETATM    9  CAW   D T1000       4.606  13.852  -2.179  1.00 61.31     0.076 A 
HETATM   10  NAH   D T1000       5.052  14.727  -3.137  1.00 62.19    -0.326 N 
HETATM   11  CAE   D T1000       4.345  15.881  -3.103  1.00 60.17     0.060 A 
HETATM   12  CAF   D T1000       4.397  17.090  -3.869  1.00 59.69     0.017 A 
HETATM   13  CAD   D T1000       3.379  15.772  -2.057  1.00 59.51     0.017 A 
HETATM   14  CAA   D T1000       3.512  18.152  -3.597  1.00 60.21     0.002 A 
HETATM   15  CAB   D T1000       2.547  18.039  -2.547  1.00 60.52     0.000 A 
HETATM   16  CAC   D T1000       2.474  16.845  -1.766  1.00 59.56     0.002 A 
BRANCH  10  17
HETATM   17  CAY   D T1000       6.158  14.424  -4.057  1.00 63.29     0.108 C 
BRANCH  17  18
HETATM   18  CBA   D T1000       7.472  14.435  -3.288  1.00 66.90     0.048 C 
BRANCH  18  19
HETATM   19  CBB   D T1000       7.941  15.887  -3.228  1.00 68.12     0.099 C 
BRANCH  19  20
HETATM   20  NBC   D T1000       8.340  16.329  -1.869  1.00 69.41    -0.365 N 
HETATM   21  CBD   D T1000       7.228  16.644  -0.989  1.00 71.44     0.121 C 
HETATM   22  CBE   D T1000       9.707  16.463  -1.362  1.00 69.10     0.121 C 
ENDBRANCH  19  20
ENDBRANCH  18  19
ENDBRANCH  17  18
ENDBRANCH  10  17
ENDBRANCH   1   8
BRANCH   7  23
HETATM   23  CAK   D T1000       4.714  13.031   1.503  1.00 59.62     0.025 A 
HETATM   24  CAM   D T1000       5.211  12.075   2.451  1.00 60.49     0.019 A 
HETATM   25  CAP   D T1000       4.651  10.956   3.159  1.00 60.58     0.002 A 
HETATM   26  CAN   D T1000       6.562  12.464   2.620  1.00 61.04     0.081 A 
HETATM   27  CAQ   D T1000       5.459  10.216   4.055  1.00 59.56     0.000 A 
HETATM   28  CAR   D T1000       6.810  10.601   4.231  1.00 60.35     0.002 A 
HETATM   29  CAS   D T1000       7.387  11.710   3.532  1.00 60.55     0.019 A 
HETATM   30  NAO   D T1000       6.813  13.556   1.823  1.00 60.44    -0.244 NA
HETATM   31  CAL   D T1000       5.717  13.934   1.128  1.00 59.16     0.099 A 
ENDBRANCH   7  23
TORSDOF 6
ENDMDL
MODEL 6
REMARK VINA RESULT:    -8.932      3.031      6.294
REMARK INTER + INTRA:         -13.142
REMARK INTER:                 -12.201
REMARK INTRA:                  -0.941
REMARK UNBOUND:                -1.077
REMARK  6 active torsions:
REMARK  status: ('A' for Active; 'I' for Inactive)
REMARK    1  A    between atoms: NBC_2  and  CBB_4 
REMARK    2  A    between atoms: CBB_4  and  CBA_5 
REMARK    3  A    between atoms: CBA_5  and  CAY_6 
REMARK    4  A    between atoms: CAY_6  and  NAH_7 
REMARK    5  A    between atoms: CAG_15  and  CAI_16 
REMARK    6  A    between atoms: CAJ_22  and  CAK_23 
ROOT
HETATM    1  CAI   D T1000       5.974  14.749  -0.887  1.00 59.57     0.064 A 
HETATM    2  CAT   D T1000       7.387  14.452  -0.537  1.00 60.04     0.282 A 
HETATM    3  OAZ   D T1000       7.746  13.485   0.218  1.00 63.91    -0.265 OA
HETATM    4  NAU   D T1000       8.294  15.282  -1.082  1.00 59.30    -0.169 NA
HETATM    5  CAV   D T1000       7.603  16.152  -1.799  1.00 59.13     0.282 A 
HETATM    6  OAX   D T1000       8.212  17.063  -2.441  1.00 59.19    -0.265 OA
HETATM    7  CAJ   D T1000       6.120  15.942  -1.770  1.00 59.47     0.064 A 
ENDROOT
BRANCH   1   8
HETATM    8  CAG   D T1000       4.750  13.956  -0.408  1.00 60.05     0.023 A 
HETATM    9  CAW   D T1000       3.606  13.899  -1.195  1.00 61.31     0.076 A 
HETATM   10  NAH   D T1000       2.704  13.130  -0.505  1.00 62.19    -0.326 N 
HETATM   11  CAE   D T1000       3.231  12.699   0.665  1.00 60.17     0.060 A 
HETATM   12  CAF   D T1000       2.730  11.883   1.729  1.00 59.69     0.017 A 
HETATM   13  CAD   D T1000       4.558  13.219   0.765  1.00 59.51     0.017 A 
HETATM   14  CAA   D T1000       3.529  11.598   2.854  1.00 60.21     0.002 A 
HETATM   15  CAB   D T1000       4.856  12.123   2.951  1.00 60.52     0.000 A 
HETATM   16  CAC   D T1000       5.382  12.940   1.904  1.00 59.56     0.002 A 
BRANCH  10  17
HETATM   17  CAY   D T1000       1.349  12.836  -0.996  1.00 63.29     0.108 C 
BRANCH  17  18
HETATM   18  CBA   D T1000       0.397  13.930  -0.533  1.00 66.90     0.048 C 
BRANCH  18  19
HETATM   19  CBB   D T1000      -0.654  13.260   0.352  1.00 68.12     0.099 C 
BRANCH  19  20
HETATM   20  NBC   D T1000      -2.006  13.215  -0.260  1.00 69.41    -0.365 N 
HETATM   21  CBD   D T1000      -3.003  14.019   0.426  1.00 71.44     0.121 C 
HETATM   22  CBE   D T1000      -2.398  12.460  -1.451  1.00 69.10     0.121 C 
ENDBRANCH  19  20
ENDBRANCH  18  19
ENDBRANCH  17  18
ENDBRANCH  10  17
ENDBRANCH   1   8
BRANCH   7  23
HETATM   23  CAK   D T1000       5.089  16.785  -2.511  1.00 59.62     0.025 A 
HETATM   24  CAM   D T1000       4.170  17.762  -2.003  1.00 60.49     0.019 A 
HETATM   25  CAP   D T1000       3.877  18.309  -0.706  1.00 60.58     0.002 A 
HETATM   26  CAN   D T1000       3.470  18.178  -3.162  1.00 61.04     0.081 A 
HETATM   27  CAQ   D T1000       2.862  19.286  -0.568  1.00 59.56     0.000 A 
HETATM   28  CAR   D T1000       2.157  19.703  -1.722  1.00 60.35     0.002 A 
HETATM   29  CAS   D T1000       2.437  19.174  -3.023  1.00 60.55     0.019 A 
HETATM   30  NAO   D T1000       3.961  17.490  -4.247  1.00 60.44    -0.244 NA
HETATM   31  CAL   D T1000       4.945  16.632  -3.896  1.00 59.16     0.099 A 
ENDBRANCH   7  23
TORSDOF 6
ENDMDL
MODEL 7
REMARK VINA RESULT:    -8.824      2.695      4.753
REMARK INTER + INTRA:         -12.996
REMARK INTER:                 -11.247
REMARK INTRA:                  -1.749
REMARK UNBOUND:                -1.077
REMARK  6 active torsions:
REMARK  status: ('A' for Active; 'I' for Inactive)
REMARK    1  A    between atoms: NBC_2  and  CBB_4 
REMARK    2  A    between atoms: CBB_4  and  CBA_5 
REMARK    3  A    between atoms: CBA_5  and  CAY_6 
REMARK    4  A    between atoms: CAY_6  and  NAH_7 
REMARK    5  A    between atoms: CAG_15  and  CAI_16 
REMARK    6  A    between atoms: CAJ_22  and  CAK_23 
ROOT
HETATM    1  CAI   D T1000       5.370  14.406  -1.278  1.00 59.57     0.064 A 
HETATM    2  CAT   D T1000       6.423  13.716  -2.066  1.00 60.04     0.282 A 
HETATM    3  OAZ   D T1000       6.635  12.457  -2.023  1.00 63.91    -0.265 OA
HETATM    4  NAU   D T1000       7.160  14.519  -2.854  1.00 59.30    -0.169 NA
HETATM    5  CAV   D T1000       6.689  15.740  -2.670  1.00 59.13     0.282 A 
HETATM    6  OAX   D T1000       7.200  16.715  -3.303  1.00 59.19    -0.265 OA
HETATM    7  CAJ   D T1000       5.554  15.826  -1.696  1.00 59.47     0.064 A 
ENDROOT
BRANCH   1   8
HETATM    8  CAG   D T1000       4.388  13.728  -0.311  1.00 60.05     0.023 A 
HETATM    9  CAW   D T1000       4.868  13.009   0.776  1.00 61.31     0.076 A 
HETATM   10  NAH   D T1000       3.765  12.531   1.437  1.00 62.19    -0.326 N 
HETATM   11  CAE   D T1000       2.626  12.924   0.821  1.00 60.17     0.060 A 
HETATM   12  CAF   D T1000       1.236  12.711   1.094  1.00 59.69     0.017 A 
HETATM   13  CAD   D T1000       2.991  13.699  -0.322  1.00 59.51     0.017 A 
HETATM   14  CAA   D T1000       0.247  13.257   0.251  1.00 60.21     0.002 A 
HETATM   15  CAB   D T1000       0.617  14.031  -0.893  1.00 60.52     0.000 A 
HETATM   16  CAC   D T1000       1.996  14.258  -1.189  1.00 59.56     0.002 A 
BRANCH  10  17
HETATM   17  CAY   D T1000       3.844  11.701   2.648  1.00 63.29     0.108 C 
BRANCH  17  18
HETATM   18  CBA   D T1000       5.055  12.121   3.471  1.00 66.90     0.048 C 
BRANCH  18  19
HETATM   19  CBB   D T1000       5.951  10.891   3.606  1.00 68.12     0.099 C 
BRANCH  19  20
HETATM   20  NBC   D T1000       7.401  11.201   3.542  1.00 69.41    -0.365 N 
HETATM   21  CBD   D T1000       8.233  10.360   4.386  1.00 71.44     0.121 C 
HETATM   22  CBE   D T1000       8.035  12.239   2.728  1.00 69.10     0.121 C 
ENDBRANCH  19  20
ENDBRANCH  18  19
ENDBRANCH  17  18
ENDBRANCH  10  17
ENDBRANCH   1   8
BRANCH   7  23
HETATM   23  CAK   D T1000       4.815  17.101  -1.304  1.00 59.62     0.025 A 
HETATM   24  CAM   D T1000       3.749  17.785  -1.977  1.00 60.49     0.019 A 
HETATM   25  CAP   D T1000       2.997  17.566  -3.183  1.00 60.58     0.002 A 
HETATM   26  CAN   D T1000       3.507  18.903  -1.142  1.00 61.04     0.081 A 
HETATM   27  CAQ   D T1000       1.988  18.484  -3.559  1.00 59.56     0.000 A 
HETATM   28  CAR   D T1000       1.743  19.605  -2.729  1.00 60.35     0.002 A 
HETATM   29  CAS   D T1000       2.478  19.839  -1.522  1.00 60.55     0.019 A 
HETATM   30  NAO   D T1000       4.369  18.851  -0.071  1.00 60.44    -0.244 NA
HETATM   31  CAL   D T1000       5.182  17.773  -0.132  1.00 59.16     0.099 A 
ENDBRANCH   7  23
TORSDOF 6
ENDMDL
MODEL 8
REMARK VINA RESULT:    -8.522      3.177      8.009
REMARK INTER + INTRA:         -12.588
REMARK INTER:                 -11.503
REMARK INTRA:                  -1.085
REMARK UNBOUND:                -1.077
REMARK  6 active torsions:
REMARK  status: ('A' for Active; 'I' for Inactive)
REMARK    1  A    between atoms: NBC_2  and  CBB_4 
REMARK    2  A    between atoms: CBB_4  and  CBA_5 
REMARK    3  A    between atoms: CBA_5  and  CAY_6 
REMARK    4  A    between atoms: CAY_6  and  NAH_7 
REMARK    5  A    between atoms: CAG_15  and  CAI_16 
REMARK    6  A    between atoms: CAJ_22  and  CAK_23 
ROOT
HETATM    1  CAI   D T1000       6.140  15.734  -1.789  1.00 59.57     0.064 A 
HETATM    2  CAT   D T1000       7.572  15.924  -1.444  1.00 60.04     0.282 A 
HETATM    3  OAZ   D T1000       8.305  16.851  -1.930  1.00 63.91    -0.265 OA
HETATM    4  NAU   D T1000       8.065  15.039  -0.559  1.00 59.30    -0.169 NA
HETATM    5  CAV   D T1000       7.063  14.232  -0.257  1.00 59.13     0.282 A 
HETATM    6  OAX   D T1000       7.243  13.289   0.575  1.00 59.19    -0.265 OA
HETATM    7  CAJ   D T1000       5.779  14.546  -0.961  1.00 59.47     0.064 A 
ENDROOT
BRANCH   1   8
HETATM    8  CAG   D T1000       5.332  16.605  -2.762  1.00 60.05     0.023 A 
HETATM    9  CAW   D T1000       5.613  16.573  -4.122  1.00 61.31     0.076 A 
HETATM   10  NAH   D T1000       4.737  17.446  -4.715  1.00 62.19    -0.326 N 
HETATM   11  CAE   D T1000       3.921  18.012  -3.794  1.00 60.17     0.060 A 
HETATM   12  CAF   D T1000       2.853  18.961  -3.877  1.00 59.69     0.017 A 
HETATM   13  CAD   D T1000       4.281  17.493  -2.513  1.00 59.51     0.017 A 
HETATM   14  CAA   D T1000       2.169  19.376  -2.718  1.00 60.21     0.002 A 
HETATM   15  CAB   D T1000       2.533  18.856  -1.436  1.00 60.52     0.000 A 
HETATM   16  CAC   D T1000       3.596  17.908  -1.324  1.00 59.56     0.002 A 
BRANCH  10  17
HETATM   17  CAY   D T1000       4.716  17.714  -6.161  1.00 63.29     0.108 C 
BRANCH  17  18
HETATM   18  CBA   D T1000       5.563  16.673  -6.879  1.00 66.90     0.048 C 
BRANCH  18  19
HETATM   19  CBB   D T1000       6.782  17.401  -7.442  1.00 68.12     0.099 C 
BRANCH  19  20
HETATM   20  NBC   D T1000       8.048  17.074  -6.741  1.00 69.41    -0.365 N 
HETATM   21  CBD   D T1000       8.501  15.705  -6.924  1.00 71.44     0.121 C 
HETATM   22  CBE   D T1000       8.848  17.981  -5.916  1.00 69.10     0.121 C 
ENDBRANCH  19  20
ENDBRANCH  18  19
ENDBRANCH  17  18
ENDBRANCH  10  17
ENDBRANCH   1   8
BRANCH   7  23
HETATM   23  CAK   D T1000       4.466  13.790  -0.794  1.00 59.62     0.025 A 
HETATM   24  CAM   D T1000       3.975  13.046   0.330  1.00 60.49     0.019 A 
HETATM   25  CAP   D T1000       4.466  12.745   1.648  1.00 60.58     0.002 A 
HETATM   26  CAN   D T1000       2.723  12.565  -0.126  1.00 61.04     0.081 A 
HETATM   27  CAQ   D T1000       3.691  11.946   2.520  1.00 59.56     0.000 A 
HETATM   28  CAR   D T1000       2.441  11.459   2.070  1.00 60.35     0.002 A 
HETATM   29  CAS   D T1000       1.932  11.751   0.763  1.00 60.55     0.019 A 
HETATM   30  NAO   D T1000       2.519  13.009  -1.412  1.00 60.44    -0.244 NA
HETATM   31  CAL   D T1000       3.555  13.755  -1.857  1.00 59.16     0.099 A 
ENDBRANCH   7  23
TORSDOF 6
ENDMDL
MODEL 9
REMARK VINA RESULT:    -8.455      2.975      7.937
REMARK INTER + INTRA:         -12.498
REMARK INTER:                 -11.276
REMARK INTRA:                  -1.222
REMARK UNBOUND:                -1.077
REMARK  6 active torsions:
REMARK  status: ('A' for Active; 'I' for Inactive)
REMARK    1  A    between atoms: NBC_2  and  CBB_4 
REMARK    2  A    between atoms: CBB_4  and  CBA_5 
REMARK    3  A    between atoms: CBA_5  and  CAY_6 
REMARK    4  A    between atoms: CAY_6  and  NAH_7 
REMARK    5  A    between atoms: CAG_15  and  CAI_16 
REMARK    6  A    between atoms: CAJ_22  and  CAK_23 
ROOT
HETATM    1  CAI   D T1000       7.733  13.695   0.661  1.00 59.57     0.064 A 
HETATM    2  CAT   D T1000       8.448  14.860   0.081  1.00 60.04     0.282 A 
HETATM    3  OAZ   D T1000       7.871  15.804  -0.560  1.00 63.91    -0.265 OA
HETATM    4  NAU   D T1000       9.778  14.866   0.278  1.00 59.30    -0.169 NA
HETATM    5  CAV   D T1000      10.047  13.770   0.967  1.00 59.13     0.282 A 
HETATM    6  OAX   D T1000      11.245  13.518   1.306  1.00 59.19    -0.265 OA
HETATM    7  CAJ   D T1000       8.850  12.926   1.281  1.00 59.47     0.064 A 
ENDROOT
BRANCH   1   8
HETATM    8  CAG   D T1000       6.219  13.448   0.587  1.00 60.05     0.023 A 
HETATM    9  CAW   D T1000       5.496  13.884  -0.517  1.00 61.31     0.076 A 
HETATM   10  NAH   D T1000       4.193  13.522  -0.289  1.00 62.19    -0.326 N 
HETATM   11  CAE   D T1000       4.071  12.877   0.895  1.00 60.17     0.060 A 
HETATM   12  CAF   D T1000       2.961  12.298   1.590  1.00 59.69     0.017 A 
HETATM   13  CAD   D T1000       5.366  12.814   1.494  1.00 59.51     0.017 A 
HETATM   14  CAA   D T1000       3.142  11.678   2.842  1.00 60.21     0.002 A 
HETATM   15  CAB   D T1000       4.440  11.618   3.440  1.00 60.52     0.000 A 
HETATM   16  CAC   D T1000       5.565  12.188   2.768  1.00 59.56     0.002 A 
BRANCH  10  17
HETATM   17  CAY   D T1000       3.096  13.817  -1.224  1.00 63.29     0.108 C 
BRANCH  17  18
HETATM   18  CBA   D T1000       3.503  14.969  -2.132  1.00 66.90     0.048 C 
BRANCH  18  19
HETATM   19  CBB   D T1000       2.571  16.138  -1.814  1.00 68.12     0.099 C 
BRANCH  19  20
HETATM   20  NBC   D T1000       3.272  17.439  -1.682  1.00 69.41    -0.365 N 
HETATM   21  CBD   D T1000       4.721  17.349  -1.724  1.00 71.44     0.121 C 
HETATM   22  CBE   D T1000       2.646  18.753  -1.524  1.00 69.10     0.121 C 
ENDBRANCH  19  20
ENDBRANCH  18  19
ENDBRANCH  17  18
ENDBRANCH  10  17
ENDBRANCH   1   8
BRANCH   7  23
HETATM   23  CAK   D T1000       8.867  11.620   2.068  1.00 59.62     0.025 A 
HETATM   24  CAM   D T1000       9.452  11.328   3.344  1.00 60.49     0.019 A 
HETATM   25  CAP   D T1000      10.187  12.079   4.326  1.00 60.58     0.002 A 
HETATM   26  CAN   D T1000       9.155   9.955   3.527  1.00 61.04     0.081 A 
HETATM   27  CAQ   D T1000      10.635  11.443   5.507  1.00 59.56     0.000 A 
HETATM   28  CAR   D T1000      10.343  10.070   5.695  1.00 60.35     0.002 A 
HETATM   29  CAS   D T1000       9.608   9.306   4.731  1.00 60.55     0.019 A 
HETATM   30  NAO   D T1000       8.447   9.506   2.436  1.00 60.44    -0.244 NA
HETATM   31  CAL   D T1000       8.252  10.485   1.525  1.00 59.16     0.099 A 
ENDBRANCH   7  23
TORSDOF 6
ENDMDL
