MODEL 1
REMARK VINA RESULT:    -8.785      0.000      0.000
REMARK INTER + INTRA:         -12.354
REMARK INTER:                 -11.866
REMARK INTRA:                  -0.488
REMARK UNBOUND:                -0.488
REMARK  6 active torsions:
REMARK  status: ('A' for Active; 'I' for Inactive)
REMARK    1  A    between atoms: NBC_2  and  CBB_4 
REMARK    2  A    between atoms: CBB_4  and  CBA_5 
REMARK    3  A    between atoms: CBA_5  and  CAY_6 
REMARK    4  A    between atoms: CAY_6  and  NAH_7 
REMARK    5  A    between atoms: CAG_15  and  CAI_16 
REMARK    6  A    between atoms: CAJ_22  and  CAK_23 
ROOT
HETATM    1  CAI   D T1307     -11.246   5.055  -4.029  1.00 44.72     0.064 A 
HETATM    2  CAT   D T1307     -10.149   5.958  -3.592  1.00 42.93     0.282 A 
HETATM    3  OAZ   D T1307      -8.940   5.856  -4.014  1.00 41.82    -0.265 OA
HETATM    4  NAU   D T1307     -10.529   6.910  -2.677  1.00 41.25    -0.169 NA
HETATM    5  CAV   D T1307     -11.859   6.718  -2.476  1.00 41.79     0.282 A 
HETATM    6  OAX   D T1307     -12.557   7.459  -1.675  1.00 43.23    -0.265 OA
HETATM    7  CAJ   D T1307     -12.378   5.573  -3.249  1.00 41.06     0.064 A 
ENDROOT
BRANCH   1   8
HETATM    8  CAG   D T1307     -11.147   3.970  -5.077  1.00 45.56     0.023 A 
HETATM    9  CAW   D T1307     -12.215   3.555  -5.867  1.00 46.69     0.076 A 
HETATM   10  NAH   D T1307     -11.735   2.598  -6.722  1.00 47.96    -0.326 N 
HETATM   11  CAE   D T1307     -10.409   2.433  -6.524  1.00 47.40     0.060 A 
HETATM   12  CAF   D T1307      -9.486   1.606  -7.159  1.00 46.84     0.017 A 
HETATM   13  CAD   D T1307      -9.992   3.298  -5.505  1.00 47.14     0.017 A 
HETATM   14  CAA   D T1307      -8.149   1.591  -6.774  1.00 46.26     0.002 A 
HETATM   15  CAB   D T1307      -7.733   2.430  -5.752  1.00 47.22     0.000 A 
HETATM   16  CAC   D T1307      -8.655   3.288  -5.112  1.00 47.34     0.002 A 
BRANCH  10  17
HETATM   17  CAY   D T1307     -12.446   1.854  -7.776  1.00 47.35     0.108 C 
BRANCH  17  18
HETATM   18  CBA   D T1307     -12.889   0.446  -7.386  1.00 49.36     0.048 C 
BRANCH  18  19
HETATM   19  CBB   D T1307     -14.417   0.447  -7.190  1.00 49.76     0.099 C 
BRANCH  19  20
HETATM   20  NBC   D T1307     -14.830   0.894  -5.845  1.00 50.82    -0.365 N 
HETATM   21  CBD   D T1307     -16.119   1.548  -5.754  1.00 49.65     0.121 C 
HETATM   22  CBE   D T1307     -14.014   0.734  -4.629  1.00 51.10     0.121 C 
ENDBRANCH  19  20
ENDBRANCH  18  19
ENDBRANCH  17  18
ENDBRANCH  10  17
ENDBRANCH   1   8
BRANCH   7  23
HETATM   23  CAK   D T1307     -13.777   5.142  -3.355  1.00 42.28     0.025 A 
HETATM   24  CAM   D T1307     -14.416   4.434  -2.337  1.00 43.03     0.019 A 
HETATM   25  CAP   D T1307     -14.033   4.026  -1.020  1.00 40.17     0.002 A 
HETATM   26  CAN   D T1307     -15.670   4.161  -2.902  1.00 41.89     0.081 A 
HETATM   27  CAQ   D T1307     -14.941   3.336  -0.223  1.00 40.87     0.000 A 
HETATM   28  CAR   D T1307     -16.218   3.072  -0.752  1.00 41.97     0.002 A 
HETATM   29  CAS   D T1307     -16.583   3.471  -2.073  1.00 41.64     0.019 A 
HETATM   30  NAO   D T1307     -15.703   4.684  -4.187  1.00 41.75    -0.244 NA
HETATM   31  CAL   D T1307     -14.532   5.299  -4.508  1.00 40.82     0.099 A 
ENDBRANCH   7  23
TORSDOF 6
ENDMDL
MODEL 2
REMARK VINA RESULT:    -8.626      2.110      3.046
REMARK INTER + INTRA:         -12.140
REMARK INTER:                 -11.043
REMARK INTRA:                  -1.097
REMARK UNBOUND:                -0.488
REMARK  6 active torsions:
REMARK  status: ('A' for Active; 'I' for Inactive)
REMARK    1  A    between atoms: NBC_2  and  CBB_4 
REMARK    2  A    between atoms: CBB_4  and  CBA_5 
REMARK    3  A    between atoms: CBA_5  and  CAY_6 
REMARK    4  A    between atoms: CAY_6  and  NAH_7 
REMARK    5  A    between atoms: CAG_15  and  CAI_16 
REMARK    6  A    between atoms: CAJ_22  and  CAK_23 
ROOT
HETATM    1  CAI   D T1307     -12.889   6.310  -2.520  1.00 44.72     0.064 A 
HETATM    2  CAT   D T1307     -12.345   7.691  -2.605  1.00 42.93     0.282 A 
HETATM    3  OAZ   D T1307     -11.598   8.098  -3.569  1.00 41.82    -0.265 OA
HETATM    4  NAU   D T1307     -12.690   8.502  -1.552  1.00 41.25    -0.169 NA
HETATM    5  CAV   D T1307     -13.476   7.744  -0.744  1.00 41.79     0.282 A 
HETATM    6  OAX   D T1307     -14.000   8.201   0.349  1.00 43.23    -0.265 OA
HETATM    7  CAJ   D T1307     -13.626   6.366  -1.251  1.00 41.06     0.064 A 
ENDROOT
BRANCH   1   8
HETATM    8  CAG   D T1307     -12.742   5.225  -3.562  1.00 45.56     0.023 A 
HETATM    9  CAW   D T1307     -13.816   4.598  -4.185  1.00 46.69     0.076 A 
HETATM   10  NAH   D T1307     -13.295   3.714  -5.094  1.00 47.96    -0.326 N 
HETATM   11  CAE   D T1307     -11.947   3.798  -5.089  1.00 47.40     0.060 A 
HETATM   12  CAF   D T1307     -10.987   3.129  -5.844  1.00 46.84     0.017 A 
HETATM   13  CAD   D T1307     -11.556   4.758  -4.147  1.00 47.14     0.017 A 
HETATM   14  CAA   D T1307      -9.629   3.368  -5.656  1.00 46.26     0.002 A 
HETATM   15  CAB   D T1307      -9.234   4.303  -4.713  1.00 47.22     0.000 A 
HETATM   16  CAC   D T1307     -10.197   5.002  -3.953  1.00 47.34     0.002 A 
BRANCH  10  17
HETATM   17  CAY   D T1307     -13.999   2.818  -6.027  1.00 47.35     0.108 C 
BRANCH  17  18
HETATM   18  CBA   D T1307     -14.004   1.345  -5.629  1.00 49.36     0.048 C 
BRANCH  18  19
HETATM   19  CBB   D T1307     -14.292   0.496  -6.883  1.00 49.76     0.099 C 
BRANCH  19  20
HETATM   20  NBC   D T1307     -13.125  -0.284  -7.337  1.00 50.82    -0.365 N 
HETATM   21  CBD   D T1307     -13.118  -1.690  -6.992  1.00 49.65     0.121 C 
HETATM   22  CBE   D T1307     -11.988   0.281  -8.085  1.00 51.10     0.121 C 
ENDBRANCH  19  20
ENDBRANCH  18  19
ENDBRANCH  17  18
ENDBRANCH  10  17
ENDBRANCH   1   8
BRANCH   7  23
HETATM   23  CAK   D T1307     -14.482   5.311  -0.695  1.00 42.28     0.025 A 
HETATM   24  CAM   D T1307     -15.837   5.513  -0.432  1.00 43.03     0.019 A 
HETATM   25  CAP   D T1307     -16.740   6.601  -0.659  1.00 40.17     0.002 A 
HETATM   26  CAN   D T1307     -16.212   4.301   0.165  1.00 41.89     0.081 A 
HETATM   27  CAQ   D T1307     -18.077   6.470  -0.295  1.00 40.87     0.000 A 
HETATM   28  CAR   D T1307     -18.490   5.254   0.280  1.00 41.97     0.002 A 
HETATM   29  CAS   D T1307     -17.576   4.183   0.515  1.00 41.64     0.019 A 
HETATM   30  NAO   D T1307     -15.097   3.479   0.243  1.00 41.75    -0.244 NA
HETATM   31  CAL   D T1307     -13.994   4.081  -0.278  1.00 40.82     0.099 A 
ENDBRANCH   7  23
TORSDOF 6
ENDMDL
MODEL 3
REMARK VINA RESULT:    -8.371      3.404      6.568
REMARK INTER + INTRA:         -11.795
REMARK INTER:                 -10.035
REMARK INTRA:                  -1.760
REMARK UNBOUND:                -0.488
REMARK  6 active torsions:
REMARK  status: ('A' for Active; 'I' for Inactive)
REMARK    1  A    between atoms: NBC_2  and  CBB_4 
REMARK    2  A    between atoms: CBB_4  and  CBA_5 
REMARK    3  A    between atoms: CBA_5  and  CAY_6 
REMARK    4  A    between atoms: CAY_6  and  NAH_7 
REMARK    5  A    between atoms: CAG_15  and  CAI_16 
REMARK    6  A    between atoms: CAJ_22  and  CAK_23 
ROOT
HETATM    1  CAI   D T1307     -16.771   3.722  -3.035  1.00 44.72     0.064 A 
HETATM    2  CAT   D T1307     -17.745   3.024  -3.915  1.00 42.93     0.282 A 
HETATM    3  OAZ   D T1307     -17.559   2.847  -5.174  1.00 41.82    -0.265 OA
HETATM    4  NAU   D T1307     -18.882   2.594  -3.274  1.00 41.25    -0.169 NA
HETATM    5  CAV   D T1307     -18.726   2.947  -1.972  1.00 41.79     0.282 A 
HETATM    6  OAX   D T1307     -19.613   2.679  -1.066  1.00 43.23    -0.265 OA
HETATM    7  CAJ   D T1307     -17.464   3.676  -1.741  1.00 41.06     0.064 A 
ENDROOT
BRANCH   1   8
HETATM    8  CAG   D T1307     -15.408   4.234  -3.439  1.00 45.56     0.023 A 
HETATM    9  CAW   D T1307     -14.932   5.503  -3.126  1.00 46.69     0.076 A 
HETATM   10  NAH   D T1307     -13.654   5.586  -3.613  1.00 47.96    -0.326 N 
HETATM   11  CAE   D T1307     -13.304   4.410  -4.177  1.00 47.40     0.060 A 
HETATM   12  CAF   D T1307     -12.115   4.001  -4.775  1.00 46.84     0.017 A 
HETATM   13  CAD   D T1307     -14.379   3.518  -4.069  1.00 47.14     0.017 A 
HETATM   14  CAA   D T1307     -11.981   2.724  -5.311  1.00 46.26     0.002 A 
HETATM   15  CAB   D T1307     -13.047   1.842  -5.226  1.00 47.22     0.000 A 
HETATM   16  CAC   D T1307     -14.253   2.237  -4.605  1.00 47.34     0.002 A 
BRANCH  10  17
HETATM   17  CAY   D T1307     -12.700   6.705  -3.531  1.00 47.35     0.108 C 
BRANCH  17  18
HETATM   18  CBA   D T1307     -11.989   6.851  -2.188  1.00 49.36     0.048 C 
BRANCH  18  19
HETATM   19  CBB   D T1307     -12.017   8.335  -1.774  1.00 49.76     0.099 C 
BRANCH  19  20
HETATM   20  NBC   D T1307     -13.015   8.628  -0.727  1.00 50.82    -0.365 N 
HETATM   21  CBD   D T1307     -12.983   9.962  -0.164  1.00 49.65     0.121 C 
HETATM   22  CBE   D T1307     -14.000   7.655  -0.222  1.00 51.10     0.121 C 
ENDBRANCH  19  20
ENDBRANCH  18  19
ENDBRANCH  17  18
ENDBRANCH  10  17
ENDBRANCH   1   8
BRANCH   7  23
HETATM   23  CAK   D T1307     -16.923   4.115  -0.448  1.00 42.28     0.025 A 
HETATM   24  CAM   D T1307     -17.401   5.248   0.211  1.00 43.03     0.019 A 
HETATM   25  CAP   D T1307     -18.464   6.171  -0.045  1.00 40.17     0.002 A 
HETATM   26  CAN   D T1307     -16.548   5.331   1.322  1.00 41.89     0.081 A 
HETATM   27  CAQ   D T1307     -18.703   7.209   0.851  1.00 40.87     0.000 A 
HETATM   28  CAR   D T1307     -17.882   7.301   1.990  1.00 41.97     0.002 A 
HETATM   29  CAS   D T1307     -16.815   6.382   2.227  1.00 41.64     0.019 A 
HETATM   30  NAO   D T1307     -15.629   4.294   1.256  1.00 41.75    -0.244 NA
HETATM   31  CAL   D T1307     -15.828   3.517   0.157  1.00 40.82     0.099 A 
ENDBRANCH   7  23
TORSDOF 6
ENDMDL
MODEL 4
REMARK VINA RESULT:    -8.294      2.823      6.883
REMARK INTER + INTRA:         -11.691
REMARK INTER:                  -9.781
REMARK INTRA:                  -1.910
REMARK UNBOUND:                -0.488
REMARK  6 active torsions:
REMARK  status: ('A' for Active; 'I' for Inactive)
REMARK    1  A    between atoms: NBC_2  and  CBB_4 
REMARK    2  A    between atoms: CBB_4  and  CBA_5 
REMARK    3  A    between atoms: CBA_5  and  CAY_6 
REMARK    4  A    between atoms: CAY_6  and  NAH_7 
REMARK    5  A    between atoms: CAG_15  and  CAI_16 
REMARK    6  A    between atoms: CAJ_22  and  CAK_23 
ROOT
HETATM    1  CAI   D T1307     -14.749   5.298  -1.427  1.00 44.72     0.064 A 
HETATM    2  CAT   D T1307     -14.117   6.543  -0.917  1.00 42.93     0.282 A 
HETATM    3  OAZ   D T1307     -14.741   7.411  -0.203  1.00 41.82    -0.265 OA
HETATM    4  NAU   D T1307     -12.804   6.705  -1.288  1.00 41.25    -0.169 NA
HETATM    5  CAV   D T1307     -12.488   5.606  -2.020  1.00 41.79     0.282 A 
HETATM    6  OAX   D T1307     -11.310   5.417  -2.523  1.00 43.23    -0.265 OA
HETATM    7  CAJ   D T1307     -13.641   4.699  -2.183  1.00 41.06     0.064 A 
ENDROOT
BRANCH   1   8
HETATM    8  CAG   D T1307     -16.148   4.816  -1.122  1.00 45.56     0.023 A 
HETATM    9  CAW   D T1307     -17.084   4.487  -2.097  1.00 46.69     0.076 A 
HETATM   10  NAH   D T1307     -18.208   4.050  -1.446  1.00 47.96    -0.326 N 
HETATM   11  CAE   D T1307     -17.993   4.055  -0.112  1.00 47.40     0.060 A 
HETATM   12  CAF   D T1307     -18.813   3.678   0.948  1.00 46.84     0.017 A 
HETATM   13  CAD   D T1307     -16.692   4.513   0.135  1.00 47.14     0.017 A 
HETATM   14  CAA   D T1307     -18.380   3.784   2.266  1.00 46.26     0.002 A 
HETATM   15  CAB   D T1307     -17.102   4.255   2.519  1.00 47.22     0.000 A 
HETATM   16  CAC   D T1307     -16.252   4.623   1.453  1.00 47.34     0.002 A 
BRANCH  10  17
HETATM   17  CAY   D T1307     -19.478   3.563  -2.010  1.00 47.35     0.108 C 
BRANCH  17  18
HETATM   18  CBA   D T1307     -19.414   2.179  -2.649  1.00 49.36     0.048 C 
BRANCH  18  19
HETATM   19  CBB   D T1307     -19.613   2.328  -4.169  1.00 49.76     0.099 C 
BRANCH  19  20
HETATM   20  NBC   D T1307     -18.488   1.789  -4.958  1.00 50.82    -0.365 N 
HETATM   21  CBD   D T1307     -18.671   0.468  -5.520  1.00 49.65     0.121 C 
HETATM   22  CBE   D T1307     -17.215   2.498  -5.181  1.00 51.10     0.121 C 
ENDBRANCH  19  20
ENDBRANCH  18  19
ENDBRANCH  17  18
ENDBRANCH  10  17
ENDBRANCH   1   8
BRANCH   7  23
HETATM   23  CAK   D T1307     -13.639   3.377  -2.821  1.00 42.28     0.025 A 
HETATM   24  CAM   D T1307     -13.589   3.221  -4.207  1.00 43.03     0.019 A 
HETATM   25  CAP   D T1307     -13.453   4.130  -5.304  1.00 40.17     0.002 A 
HETATM   26  CAN   D T1307     -13.704   1.831  -4.357  1.00 41.89     0.081 A 
HETATM   27  CAQ   D T1307     -13.408   3.635  -6.604  1.00 40.87     0.000 A 
HETATM   28  CAR   D T1307     -13.492   2.243  -6.785  1.00 41.97     0.002 A 
HETATM   29  CAS   D T1307     -13.642   1.347  -5.683  1.00 41.64     0.019 A 
HETATM   30  NAO   D T1307     -13.832   1.256  -3.101  1.00 41.75    -0.244 NA
HETATM   31  CAL   D T1307     -13.803   2.194  -2.116  1.00 40.82     0.099 A 
ENDBRANCH   7  23
TORSDOF 6
ENDMDL
MODEL 5
REMARK VINA RESULT:    -8.250      3.841      8.612
REMARK INTER + INTRA:         -11.632
REMARK INTER:                 -10.090
REMARK INTRA:                  -1.542
REMARK UNBOUND:                -0.488
REMARK  6 active torsions:
REMARK  status: ('A' for Active; 'I' for Inactive)
REMARK    1  A    between atoms: NBC_2  and  CBB_4 
REMARK    2  A    between atoms: CBB_4  and  CBA_5 
REMARK    3  A    between atoms: CBA_5  and  CAY_6 
REMARK    4  A    between atoms: CAY_6  and  NAH_7 
REMARK    5  A    between atoms: CAG_15  and  CAI_16 
REMARK    6  A    between atoms: CAJ_22  and  CAK_23 
ROOT
HETATM    1  CAI   D T1307     -16.478   3.709  -2.567  1.00 44.72     0.064 A 
HETATM    2  CAT   D T1307     -17.088   3.099  -3.777  1.00 42.93     0.282 A 
HETATM    3  OAZ   D T1307     -18.347   2.866  -3.893  1.00 41.82    -0.265 OA
HETATM    4  NAU   D T1307     -16.189   2.784  -4.768  1.00 41.25    -0.169 NA
HETATM    5  CAV   D T1307     -14.975   3.173  -4.301  1.00 41.79     0.282 A 
HETATM    6  OAX   D T1307     -13.887   3.038  -4.991  1.00 43.23    -0.265 OA
HETATM    7  CAJ   D T1307     -15.056   3.726  -2.935  1.00 41.06     0.064 A 
ENDROOT
BRANCH   1   8
HETATM    8  CAG   D T1307     -17.219   4.226  -1.355  1.00 45.56     0.023 A 
HETATM    9  CAW   D T1307     -17.206   5.556  -0.947  1.00 46.69     0.076 A 
HETATM   10  NAH   D T1307     -18.023   5.649   0.149  1.00 47.96    -0.326 N 
HETATM   11  CAE   D T1307     -18.572   4.443   0.412  1.00 47.40     0.060 A 
HETATM   12  CAF   D T1307     -19.474   4.045   1.395  1.00 46.84     0.017 A 
HETATM   13  CAD   D T1307     -18.105   3.517  -0.530  1.00 47.14     0.017 A 
HETATM   14  CAA   D T1307     -19.899   2.723   1.488  1.00 46.26     0.002 A 
HETATM   15  CAB   D T1307     -19.427   1.797   0.572  1.00 47.22     0.000 A 
HETATM   16  CAC   D T1307     -18.526   2.191  -0.442  1.00 47.34     0.002 A 
BRANCH  10  17
HETATM   17  CAY   D T1307     -18.372   6.835   0.949  1.00 47.35     0.108 C 
BRANCH  17  18
HETATM   18  CBA   D T1307     -17.530   7.039   2.206  1.00 49.36     0.048 C 
BRANCH  18  19
HETATM   19  CBB   D T1307     -16.149   6.392   1.985  1.00 49.76     0.099 C 
BRANCH  19  20
HETATM   20  NBC   D T1307     -15.082   7.376   1.719  1.00 50.82    -0.365 N 
HETATM   21  CBD   D T1307     -14.543   8.066   2.872  1.00 49.65     0.121 C 
HETATM   22  CBE   D T1307     -14.565   7.698   0.378  1.00 51.10     0.121 C 
ENDBRANCH  19  20
ENDBRANCH  18  19
ENDBRANCH  17  18
ENDBRANCH  10  17
ENDBRANCH   1   8
BRANCH   7  23
HETATM   23  CAK   D T1307     -13.965   4.335  -2.165  1.00 42.28     0.025 A 
HETATM   24  CAM   D T1307     -13.297   5.480  -2.599  1.00 43.03     0.019 A 
HETATM   25  CAP   D T1307     -13.468   6.369  -3.708  1.00 40.17     0.002 A 
HETATM   26  CAN   D T1307     -12.300   5.635  -1.625  1.00 41.89     0.081 A 
HETATM   27  CAQ   D T1307     -12.626   7.468  -3.844  1.00 40.87     0.000 A 
HETATM   28  CAR   D T1307     -11.634   7.665  -2.866  1.00 41.97     0.002 A 
HETATM   29  CAS   D T1307     -11.464   6.764  -1.772  1.00 41.64     0.019 A 
HETATM   30  NAO   D T1307     -12.410   4.600  -0.707  1.00 41.75    -0.244 NA
HETATM   31  CAL   D T1307     -13.436   3.762  -1.018  1.00 40.82     0.099 A 
ENDBRANCH   7  23
TORSDOF 6
ENDMDL
MODEL 6
REMARK VINA RESULT:    -8.221      2.665      7.218
REMARK INTER + INTRA:         -11.593
REMARK INTER:                 -10.300
REMARK INTRA:                  -1.294
REMARK UNBOUND:                -0.488
REMARK  6 active torsions:
REMARK  status: ('A' for Active; 'I' for Inactive)
REMARK    1  A    between atoms: NBC_2  and  CBB_4 
REMARK    2  A    between atoms: CBB_4  and  CBA_5 
REMARK    3  A    between atoms: CBA_5  and  CAY_6 
REMARK    4  A    between atoms: CAY_6  and  NAH_7 
REMARK    5  A    between atoms: CAG_15  and  CAI_16 
REMARK    6  A    between atoms: CAJ_22  and  CAK_23 
ROOT
HETATM    1  CAI   D T1307     -13.421   5.359  -2.862  1.00 44.72     0.064 A 
HETATM    2  CAT   D T1307     -12.493   6.518  -2.790  1.00 42.93     0.282 A 
HETATM    3  OAZ   D T1307     -12.778   7.613  -2.182  1.00 41.82    -0.265 OA
HETATM    4  NAU   D T1307     -11.301   6.331  -3.447  1.00 41.25    -0.169 NA
HETATM    5  CAV   D T1307     -11.354   5.073  -3.957  1.00 41.79     0.282 A 
HETATM    6  OAX   D T1307     -10.379   4.553  -4.633  1.00 43.23    -0.265 OA
HETATM    7  CAJ   D T1307     -12.642   4.412  -3.670  1.00 41.06     0.064 A 
ENDROOT
BRANCH   1   8
HETATM    8  CAG   D T1307     -14.763   5.243  -2.176  1.00 45.56     0.023 A 
HETATM    9  CAW   D T1307     -15.012   5.683  -0.880  1.00 46.69     0.076 A 
HETATM   10  NAH   D T1307     -16.339   5.456  -0.625  1.00 47.96    -0.326 N 
HETATM   11  CAE   D T1307     -16.931   4.934  -1.721  1.00 47.40     0.060 A 
HETATM   12  CAF   D T1307     -18.252   4.565  -1.957  1.00 46.84     0.017 A 
HETATM   13  CAD   D T1307     -15.973   4.803  -2.734  1.00 47.14     0.017 A 
HETATM   14  CAA   D T1307     -18.641   4.025  -3.180  1.00 46.26     0.002 A 
HETATM   15  CAB   D T1307     -17.694   3.873  -4.180  1.00 47.22     0.000 A 
HETATM   16  CAC   D T1307     -16.354   4.261  -3.961  1.00 47.34     0.002 A 
BRANCH  10  17
HETATM   17  CAY   D T1307     -17.116   5.758   0.589  1.00 47.35     0.108 C 
BRANCH  17  18
HETATM   18  CBA   D T1307     -17.141   4.646   1.634  1.00 49.36     0.048 C 
BRANCH  18  19
HETATM   19  CBB   D T1307     -18.534   3.987   1.619  1.00 49.76     0.099 C 
BRANCH  19  20
HETATM   20  NBC   D T1307     -18.971   3.520   2.949  1.00 50.82    -0.365 N 
HETATM   21  CBD   D T1307     -18.087   3.816   4.056  1.00 49.65     0.121 C 
HETATM   22  CBE   D T1307     -20.215   2.771   3.199  1.00 51.10     0.121 C 
ENDBRANCH  19  20
ENDBRANCH  18  19
ENDBRANCH  17  18
ENDBRANCH  10  17
ENDBRANCH   1   8
BRANCH   7  23
HETATM   23  CAK   D T1307     -13.007   3.023  -3.976  1.00 42.28     0.025 A 
HETATM   24  CAM   D T1307     -13.040   2.534  -5.282  1.00 43.03     0.019 A 
HETATM   25  CAP   D T1307     -12.699   3.086  -6.558  1.00 40.17     0.002 A 
HETATM   26  CAN   D T1307     -13.521   1.229  -5.102  1.00 41.89     0.081 A 
HETATM   27  CAQ   D T1307     -12.823   2.302  -7.701  1.00 40.87     0.000 A 
HETATM   28  CAR   D T1307     -13.277   0.979  -7.549  1.00 41.97     0.002 A 
HETATM   29  CAS   D T1307     -13.628   0.444  -6.273  1.00 41.64     0.019 A 
HETATM   30  NAO   D T1307     -13.761   1.025  -3.751  1.00 41.75    -0.244 NA
HETATM   31  CAL   D T1307     -13.458   2.129  -3.016  1.00 40.82     0.099 A 
ENDBRANCH   7  23
TORSDOF 6
ENDMDL
MODEL 7
REMARK VINA RESULT:    -8.194      4.927      8.385
REMARK INTER + INTRA:         -11.556
REMARK INTER:                  -9.212
REMARK INTRA:                  -2.343
REMARK UNBOUND:                -0.488
REMARK  6 active torsions:
REMARK  status: ('A' for Active; 'I' for Inactive)
REMARK    1  A    between atoms: NBC_2  and  CBB_4 
REMARK    2  A    between atoms: CBB_4  and  CBA_5 
REMARK    3  A    between atoms: CBA_5  and  CAY_6 
REMARK    4  A    between atoms: CAY_6  and  NAH_7 
REMARK    5  A    between atoms: CAG_15  and  CAI_16 
REMARK    6  A    between atoms: CAJ_22  and  CAK_23 
ROOT
HETATM    1  CAI   D T1307     -18.826   2.741   0.165  1.00 44.72     0.064 A 
HETATM    2  CAT   D T1307     -19.491   1.477   0.579  1.00 42.93     0.282 A 
HETATM    3  OAZ   D T1307     -19.491   0.411  -0.138  1.00 41.82    -0.265 OA
HETATM    4  NAU   D T1307     -20.130   1.544   1.794  1.00 41.25    -0.169 NA
HETATM    5  CAV   D T1307     -19.915   2.803   2.255  1.00 41.79     0.282 A 
HETATM    6  OAX   D T1307     -20.367   3.215   3.397  1.00 43.23    -0.265 OA
HETATM    7  CAJ   D T1307     -19.145   3.621   1.297  1.00 41.06     0.064 A 
ENDROOT
BRANCH   1   8
HETATM    8  CAG   D T1307     -17.988   2.945  -1.076  1.00 45.56     0.023 A 
HETATM    9  CAW   D T1307     -16.603   2.812  -1.106  1.00 46.69     0.076 A 
HETATM   10  NAH   D T1307     -16.207   3.024  -2.401  1.00 47.96    -0.326 N 
HETATM   11  CAE   D T1307     -17.289   3.241  -3.179  1.00 47.40     0.060 A 
HETATM   12  CAF   D T1307     -17.399   3.475  -4.547  1.00 46.84     0.017 A 
HETATM   13  CAD   D T1307     -18.440   3.179  -2.383  1.00 47.14     0.017 A 
HETATM   14  CAA   D T1307     -18.638   3.690  -5.144  1.00 46.26     0.002 A 
HETATM   15  CAB   D T1307     -19.779   3.650  -4.359  1.00 47.22     0.000 A 
HETATM   16  CAC   D T1307     -19.685   3.394  -2.973  1.00 47.34     0.002 A 
BRANCH  10  17
HETATM   17  CAY   D T1307     -14.852   2.978  -2.977  1.00 47.35     0.108 C 
BRANCH  17  18
HETATM   18  CBA   D T1307     -13.792   3.752  -2.198  1.00 49.36     0.048 C 
BRANCH  18  19
HETATM   19  CBB   D T1307     -13.809   5.219  -2.667  1.00 49.76     0.099 C 
BRANCH  19  20
HETATM   20  NBC   D T1307     -13.939   6.183  -1.557  1.00 50.82    -0.365 N 
HETATM   21  CBD   D T1307     -12.897   7.182  -1.449  1.00 49.65     0.121 C 
HETATM   22  CBE   D T1307     -15.032   6.169  -0.569  1.00 51.10     0.121 C 
ENDBRANCH  19  20
ENDBRANCH  18  19
ENDBRANCH  17  18
ENDBRANCH  10  17
ENDBRANCH   1   8
BRANCH   7  23
HETATM   23  CAK   D T1307     -18.644   4.985   1.506  1.00 42.28     0.025 A 
HETATM   24  CAM   D T1307     -19.083   6.064   0.738  1.00 43.03     0.019 A 
HETATM   25  CAP   D T1307     -20.073   6.217  -0.285  1.00 40.17     0.002 A 
HETATM   26  CAN   D T1307     -18.285   7.115   1.211  1.00 41.89     0.081 A 
HETATM   27  CAQ   D T1307     -20.293   7.471  -0.847  1.00 40.87     0.000 A 
HETATM   28  CAR   D T1307     -19.527   8.551  -0.371  1.00 41.97     0.002 A 
HETATM   29  CAS   D T1307     -18.532   8.383   0.639  1.00 41.64     0.019 A 
HETATM   30  NAO   D T1307     -17.430   6.621   2.186  1.00 41.75    -0.244 NA
HETATM   31  CAL   D T1307     -17.620   5.289   2.391  1.00 40.82     0.099 A 
ENDBRANCH   7  23
TORSDOF 6
ENDMDL
MODEL 8
REMARK VINA RESULT:    -8.123      2.497      4.994
REMARK INTER + INTRA:         -11.461
REMARK INTER:                 -10.054
REMARK INTRA:                  -1.408
REMARK UNBOUND:                -0.488
REMARK  6 active torsions:
REMARK  status: ('A' for Active; 'I' for Inactive)
REMARK    1  A    between atoms: NBC_2  and  CBB_4 
REMARK    2  A    between atoms: CBB_4  and  CBA_5 
REMARK    3  A    between atoms: CBA_5  and  CAY_6 
REMARK    4  A    between atoms: CAY_6  and  NAH_7 
REMARK    5  A    between atoms: CAG_15  and  CAI_16 
REMARK    6  A    between atoms: CAJ_22  and  CAK_23 
ROOT
HETATM    1  CAI   D T1307     -13.476   6.386  -1.938  1.00 44.72     0.064 A 
HETATM    2  CAT   D T1307     -12.743   7.679  -1.987  1.00 42.93     0.282 A 
HETATM    3  OAZ   D T1307     -11.956   8.008  -2.948  1.00 41.82    -0.265 OA
HETATM    4  NAU   D T1307     -12.962   8.496  -0.904  1.00 41.25    -0.169 NA
HETATM    5  CAV   D T1307     -13.839   7.829  -0.110  1.00 41.79     0.282 A 
HETATM    6  OAX   D T1307     -14.283   8.320   1.003  1.00 43.23    -0.265 OA
HETATM    7  CAJ   D T1307     -14.186   6.503  -0.658  1.00 41.06     0.064 A 
ENDROOT
BRANCH   1   8
HETATM    8  CAG   D T1307     -13.492   5.326  -3.015  1.00 45.56     0.023 A 
HETATM    9  CAW   D T1307     -12.347   4.805  -3.608  1.00 46.69     0.076 A 
HETATM   10  NAH   D T1307     -12.754   3.843  -4.494  1.00 47.96    -0.326 N 
HETATM   11  CAE   D T1307     -14.097   3.716  -4.444  1.00 47.40     0.060 A 
HETATM   12  CAF   D T1307     -14.961   2.864  -5.128  1.00 46.84     0.017 A 
HETATM   13  CAD   D T1307     -14.603   4.622  -3.504  1.00 47.14     0.017 A 
HETATM   14  CAA   D T1307     -16.336   2.920  -4.925  1.00 46.26     0.002 A 
HETATM   15  CAB   D T1307     -16.846   3.828  -4.011  1.00 47.22     0.000 A 
HETATM   16  CAC   D T1307     -15.980   4.685  -3.296  1.00 47.34     0.002 A 
BRANCH  10  17
HETATM   17  CAY   D T1307     -11.939   2.975  -5.362  1.00 47.35     0.108 C 
BRANCH  17  18
HETATM   18  CBA   D T1307     -10.477   3.391  -5.503  1.00 49.36     0.048 C 
BRANCH  18  19
HETATM   19  CBB   D T1307      -9.963   2.929  -6.880  1.00 49.76     0.099 C 
BRANCH  19  20
HETATM   20  NBC   D T1307      -8.791   2.035  -6.793  1.00 50.82    -0.365 N 
HETATM   21  CBD   D T1307      -8.757   0.928  -7.723  1.00 49.65     0.121 C 
HETATM   22  CBE   D T1307      -7.695   2.196  -5.821  1.00 51.10     0.121 C 
ENDBRANCH  19  20
ENDBRANCH  18  19
ENDBRANCH  17  18
ENDBRANCH  10  17
ENDBRANCH   1   8
BRANCH   7  23
HETATM   23  CAK   D T1307     -15.176   5.561  -0.123  1.00 42.28     0.025 A 
HETATM   24  CAM   D T1307     -16.522   5.899   0.021  1.00 43.03     0.019 A 
HETATM   25  CAP   D T1307     -17.300   7.049  -0.328  1.00 40.17     0.002 A 
HETATM   26  CAN   D T1307     -17.054   4.759   0.642  1.00 41.89     0.081 A 
HETATM   27  CAQ   D T1307     -18.667   7.060  -0.067  1.00 40.87     0.000 A 
HETATM   28  CAR   D T1307     -19.234   5.919   0.530  1.00 41.97     0.002 A 
HETATM   29  CAS   D T1307     -18.445   4.783   0.887  1.00 41.64     0.019 A 
HETATM   30  NAO   D T1307     -16.031   3.845   0.847  1.00 41.75    -0.244 NA
HETATM   31  CAL   D T1307     -14.839   4.316   0.388  1.00 40.82     0.099 A 
ENDBRANCH   7  23
TORSDOF 6
ENDMDL
MODEL 9
REMARK VINA RESULT:    -8.082      3.304      7.663
REMARK INTER + INTRA:         -11.405
REMARK INTER:                  -9.575
REMARK INTRA:                  -1.830
REMARK UNBOUND:                -0.488
REMARK  6 active torsions:
REMARK  status: ('A' for Active; 'I' for Inactive)
REMARK    1  A    between atoms: NBC_2  and  CBB_4 
REMARK    2  A    between atoms: CBB_4  and  CBA_5 
REMARK    3  A    between atoms: CBA_5  and  CAY_6 
REMARK    4  A    between atoms: CAY_6  and  NAH_7 
REMARK    5  A    between atoms: CAG_15  and  CAI_16 
REMARK    6  A    between atoms: CAJ_22  and  CAK_23 
ROOT
HETATM    1  CAI   D T1307     -16.398   1.395  -5.768  1.00 44.72     0.064 A 
HETATM    2  CAT   D T1307     -17.774   1.917  -5.980  1.00 42.93     0.282 A 
HETATM    3  OAZ   D T1307     -18.146   3.094  -5.623  1.00 41.82    -0.265 OA
HETATM    4  NAU   D T1307     -18.632   1.025  -6.578  1.00 41.25    -0.169 NA
HETATM    5  CAV   D T1307     -17.898  -0.093  -6.812  1.00 41.79     0.282 A 
HETATM    6  OAX   D T1307     -18.391  -1.143  -7.388  1.00 43.23    -0.265 OA
HETATM    7  CAJ   D T1307     -16.514   0.037  -6.315  1.00 41.06     0.064 A 
ENDROOT
BRANCH   1   8
HETATM    8  CAG   D T1307     -15.226   2.167  -5.206  1.00 45.56     0.023 A 
HETATM    9  CAW   D T1307     -15.207   2.731  -3.935  1.00 46.69     0.076 A 
HETATM   10  NAH   D T1307     -13.973   3.302  -3.766  1.00 47.96    -0.326 N 
HETATM   11  CAE   D T1307     -13.214   3.079  -4.860  1.00 47.40     0.060 A 
HETATM   12  CAF   D T1307     -11.899   3.434  -5.148  1.00 46.84     0.017 A 
HETATM   13  CAD   D T1307     -13.963   2.345  -5.789  1.00 47.14     0.017 A 
HETATM   14  CAA   D T1307     -11.315   3.105  -6.368  1.00 46.26     0.002 A 
HETATM   15  CAB   D T1307     -12.057   2.397  -7.300  1.00 47.22     0.000 A 
HETATM   16  CAC   D T1307     -13.386   2.014  -7.014  1.00 47.34     0.002 A 
BRANCH  10  17
HETATM   17  CAY   D T1307     -13.429   4.009  -2.594  1.00 47.35     0.108 C 
BRANCH  17  18
HETATM   18  CBA   D T1307     -13.694   5.511  -2.565  1.00 49.36     0.048 C 
BRANCH  18  19
HETATM   19  CBB   D T1307     -12.751   6.158  -1.531  1.00 49.76     0.099 C 
BRANCH  19  20
HETATM   20  NBC   D T1307     -11.832   7.150  -2.124  1.00 50.82    -0.365 N 
HETATM   21  CBD   D T1307     -12.004   8.522  -1.695  1.00 49.65     0.121 C 
HETATM   22  CBE   D T1307     -10.791   6.828  -3.116  1.00 51.10     0.121 C 
ENDBRANCH  19  20
ENDBRANCH  18  19
ENDBRANCH  17  18
ENDBRANCH  10  17
ENDBRANCH   1   8
BRANCH   7  23
HETATM   23  CAK   D T1307     -15.421  -0.928  -6.487  1.00 42.28     0.025 A 
HETATM   24  CAM   D T1307     -14.827  -1.164  -7.727  1.00 43.03     0.019 A 
HETATM   25  CAP   D T1307     -14.979  -0.586  -9.028  1.00 40.17     0.002 A 
HETATM   26  CAN   D T1307     -13.928  -2.201  -7.437  1.00 41.89     0.081 A 
HETATM   27  CAQ   D T1307     -14.191  -1.043 -10.080  1.00 40.87     0.000 A 
HETATM   28  CAR   D T1307     -13.260  -2.063  -9.812  1.00 41.97     0.002 A 
HETATM   29  CAS   D T1307     -13.128  -2.642  -8.514  1.00 41.64     0.019 A 
HETATM   30  NAO   D T1307     -14.046  -2.530  -6.094  1.00 41.75    -0.244 NA
HETATM   31  CAL   D T1307     -14.977  -1.758  -5.469  1.00 40.82     0.099 A 
ENDBRANCH   7  23
TORSDOF 6
ENDMDL
