MODEL 1
REMARK VINA RESULT:    -6.977      0.000      0.000
REMARK INTER + INTRA:          -8.365
REMARK INTER:                  -7.793
REMARK INTRA:                  -0.572
REMARK UNBOUND:                -0.572
REMARK  2 active torsions:
REMARK  status: ('A' for Active; 'I' for Inactive)
REMARK    1  A    between atoms: C4_4  and  C7_7 
REMARK    2  A    between atoms: C5_5  and  C15_15 
ROOT
HETATM    1  N1    D T1240     -22.432   5.961  12.400  1.00 25.62    -0.194 NA
HETATM    2  C2    D T1240     -23.619   5.314  12.692  1.00 23.58     0.239 A 
HETATM    3  C3    D T1240     -21.229   5.206  12.352  1.00 22.29     0.187 A 
HETATM    4  C4    D T1240     -21.199   3.740  12.621  1.00 21.48     0.051 A 
HETATM    5  C5    D T1240     -22.567   3.177  12.904  1.00 26.18     0.065 A 
HETATM    6  N6    D T1240     -23.701   3.946  12.930  1.00 28.81    -0.219 NA
HETATM    7  N13   D T1240     -20.077   5.811  12.064  1.00 22.31    -0.127 N 
HETATM    8  N14   D T1240     -24.801   6.062  12.763  1.00 25.45    -0.060 NA
ENDROOT
BRANCH   4   9
HETATM    9  C7    D T1240     -19.963   2.943  12.610  1.00 23.16     0.000 A 
HETATM   10  C8    D T1240     -19.159   2.744  13.825  1.00 23.74     0.000 A 
HETATM   11  C9    D T1240     -17.952   1.955  13.850  1.00 22.05     0.007 A 
HETATM   12  C10   D T1240     -17.506   1.345  12.688  1.00 28.58     0.040 A 
HETATM   13  C11   D T1240     -18.274   1.499  11.435  1.00 23.69     0.064 A 
HETATM   14 CL1    D T1240     -16.127   0.444  12.623  1.00  5.79    -0.087 Cl
HETATM   15  C12   D T1240     -19.479   2.291  11.434  1.00 23.56    -0.020 A 
ENDBRANCH   4   9
BRANCH   5  16
HETATM   16  C15   D T1240     -22.727   1.700  13.176  1.00 31.62     0.046 C 
HETATM   17  C16   D T1240     -22.562   1.286  14.631  1.00 31.37     0.007 C 
ENDBRANCH   5  16
TORSDOF 2
ENDMDL
MODEL 2
REMARK VINA RESULT:    -6.816      0.942      2.898
REMARK INTER + INTRA:          -8.185
REMARK INTER:                  -7.701
REMARK INTRA:                  -0.484
REMARK UNBOUND:                -0.572
REMARK  2 active torsions:
REMARK  status: ('A' for Active; 'I' for Inactive)
REMARK    1  A    between atoms: C4_4  and  C7_7 
REMARK    2  A    between atoms: C5_5  and  C15_15 
ROOT
HETATM    1  N1    D T1240     -23.717   3.725  13.010  1.00 25.62    -0.194 NA
HETATM    2  C2    D T1240     -23.626   5.080  12.755  1.00 23.58     0.239 A 
HETATM    3  C3    D T1240     -22.529   2.945  13.028  1.00 22.29     0.187 A 
HETATM    4  C4    D T1240     -21.186   3.535  12.763  1.00 21.48     0.051 A 
HETATM    5  C5    D T1240     -21.246   5.021  12.521  1.00 26.18     0.065 A 
HETATM    6  N6    D T1240     -22.418   5.732  12.524  1.00 28.81    -0.219 NA
HETATM    7  N13   D T1240     -22.597   1.638  13.280  1.00 22.31    -0.127 N 
HETATM    8  N14   D T1240     -24.799   5.845  12.714  1.00 25.45    -0.060 NA
ENDROOT
BRANCH   4   9
HETATM    9  C7    D T1240     -19.947   2.744  12.742  1.00 23.16     0.000 A 
HETATM   10  C8    D T1240     -19.506   2.027  11.537  1.00 23.74     0.000 A 
HETATM   11  C9    D T1240     -18.288   1.257  11.480  1.00 22.05     0.007 A 
HETATM   12  C10   D T1240     -17.477   1.171  12.601  1.00 28.58     0.040 A 
HETATM   13  C11   D T1240     -17.860   1.876  13.842  1.00 23.69     0.064 A 
HETATM   14 CL1    D T1240     -16.080   0.295  12.629  1.00  5.79    -0.087 Cl
HETATM   15  C12   D T1240     -19.081   2.642  13.875  1.00 23.56    -0.020 A 
ENDBRANCH   4   9
BRANCH   5  16
HETATM   16  C15   D T1240     -19.972   5.789  12.260  1.00 31.62     0.046 C 
HETATM   17  C16   D T1240     -19.392   5.628  10.862  1.00 31.37     0.007 C 
ENDBRANCH   5  16
TORSDOF 2
ENDMDL
MODEL 3
REMARK VINA RESULT:    -6.522      3.271      5.195
REMARK INTER + INTRA:          -7.856
REMARK INTER:                  -7.426
REMARK INTRA:                  -0.430
REMARK UNBOUND:                -0.572
REMARK  2 active torsions:
REMARK  status: ('A' for Active; 'I' for Inactive)
REMARK    1  A    between atoms: C4_4  and  C7_7 
REMARK    2  A    between atoms: C5_5  and  C15_15 
ROOT
HETATM    1  N1    D T1240     -22.187   4.132  13.393  1.00 25.62    -0.194 NA
HETATM    2  C2    D T1240     -20.830   4.092  13.129  1.00 23.58     0.239 A 
HETATM    3  C3    D T1240     -22.927   2.919  13.387  1.00 22.29     0.187 A 
HETATM    4  C4    D T1240     -22.294   1.603  13.089  1.00 21.48     0.051 A 
HETATM    5  C5    D T1240     -20.813   1.718  12.841  1.00 26.18     0.065 A 
HETATM    6  N6    D T1240     -20.141   2.912  12.867  1.00 28.81    -0.219 NA
HETATM    7  N13   D T1240     -24.233   2.937  13.648  1.00 22.31    -0.127 N 
HETATM    8  N14   D T1240     -20.105   5.290  13.111  1.00 25.45    -0.060 NA
ENDROOT
BRANCH   4   9
HETATM    9  C7    D T1240     -23.044   0.339  13.044  1.00 23.16     0.000 A 
HETATM   10  C8    D T1240     -23.151  -0.541  14.217  1.00 23.74     0.000 A 
HETATM   11  C9    D T1240     -23.893  -1.778  14.208  1.00 22.05     0.007 A 
HETATM   12  C10   D T1240     -24.543  -2.181  13.052  1.00 28.58     0.040 A 
HETATM   13  C11   D T1240     -24.481  -1.337  11.841  1.00 23.69     0.064 A 
HETATM   14 CL1    D T1240     -25.394  -3.590  12.949  1.00  5.79    -0.087 Cl
HETATM   15  C12   D T1240     -23.736  -0.103  11.873  1.00 23.56    -0.020 A 
ENDBRANCH   4   9
BRANCH   5  16
HETATM   16  C15   D T1240     -20.004   0.476  12.546  1.00 31.62     0.046 C 
HETATM   17  C16   D T1240     -18.605   0.726  12.003  1.00 31.37     0.007 C 
ENDBRANCH   5  16
TORSDOF 2
ENDMDL
MODEL 4
REMARK VINA RESULT:    -6.521      3.826      5.797
REMARK INTER + INTRA:          -7.855
REMARK INTER:                  -7.525
REMARK INTRA:                  -0.330
REMARK UNBOUND:                -0.572
REMARK  2 active torsions:
REMARK  status: ('A' for Active; 'I' for Inactive)
REMARK    1  A    between atoms: C4_4  and  C7_7 
REMARK    2  A    between atoms: C5_5  and  C15_15 
ROOT
HETATM    1  N1    D T1240     -19.269   3.394  12.218  1.00 25.62    -0.194 NA
HETATM    2  C2    D T1240     -19.869   2.420  12.993  1.00 23.58     0.239 A 
HETATM    3  C3    D T1240     -19.985   4.588  11.933  1.00 22.29     0.187 A 
HETATM    4  C4    D T1240     -21.371   4.821  12.429  1.00 21.48     0.051 A 
HETATM    5  C5    D T1240     -21.881   3.682  13.273  1.00 26.18     0.065 A 
HETATM    6  N6    D T1240     -21.147   2.553  13.528  1.00 28.81    -0.219 NA
HETATM    7  N13   D T1240     -19.419   5.542  11.194  1.00 22.31    -0.127 N 
HETATM    8  N14   D T1240     -19.172   1.233  13.254  1.00 25.45    -0.060 NA
ENDROOT
BRANCH   4   9
HETATM    9  C7    D T1240     -22.146   6.032  12.121  1.00 23.16     0.000 A 
HETATM   10  C8    D T1240     -21.875   7.316  12.786  1.00 23.74     0.000 A 
HETATM   11  C9    D T1240     -22.606   8.524  12.493  1.00 22.05     0.007 A 
HETATM   12  C10   D T1240     -23.617   8.502  11.546  1.00 28.58     0.040 A 
HETATM   13  C11   D T1240     -23.933   7.245  10.836  1.00 23.69     0.064 A 
HETATM   14 CL1    D T1240     -24.516   9.831  11.166  1.00  5.79    -0.087 Cl
HETATM   15  C12   D T1240     -23.188   6.050  11.143  1.00 23.56    -0.020 A 
ENDBRANCH   4   9
BRANCH   5  16
HETATM   16  C15   D T1240     -23.263   3.760  13.880  1.00 31.62     0.046 C 
HETATM   17  C16   D T1240     -23.548   2.743  14.975  1.00 31.37     0.007 C 
ENDBRANCH   5  16
TORSDOF 2
ENDMDL
MODEL 5
REMARK VINA RESULT:    -6.513      2.451      4.295
REMARK INTER + INTRA:          -7.846
REMARK INTER:                  -7.278
REMARK INTRA:                  -0.568
REMARK UNBOUND:                -0.572
REMARK  2 active torsions:
REMARK  status: ('A' for Active; 'I' for Inactive)
REMARK    1  A    between atoms: C4_4  and  C7_7 
REMARK    2  A    between atoms: C5_5  and  C15_15 
ROOT
HETATM    1  N1    D T1240     -22.408   5.690  13.379  1.00 25.62    -0.194 NA
HETATM    2  C2    D T1240     -21.049   5.895  13.232  1.00 23.58     0.239 A 
HETATM    3  C3    D T1240     -22.901   4.360  13.449  1.00 22.29     0.187 A 
HETATM    4  C4    D T1240     -22.004   3.173  13.355  1.00 21.48     0.051 A 
HETATM    5  C5    D T1240     -20.554   3.555  13.217  1.00 26.18     0.065 A 
HETATM    6  N6    D T1240     -20.126   4.856  13.163  1.00 28.81    -0.219 NA
HETATM    7  N13   D T1240     -24.208   4.143  13.598  1.00 22.31    -0.127 N 
HETATM    8  N14   D T1240     -20.565   7.207  13.139  1.00 25.45    -0.060 NA
ENDROOT
BRANCH   4   9
HETATM    9  C7    D T1240     -22.493   1.786  13.391  1.00 23.16     0.000 A 
HETATM   10  C8    D T1240     -22.634   1.048  14.655  1.00 23.74     0.000 A 
HETATM   11  C9    D T1240     -23.126  -0.306  14.724  1.00 22.05     0.007 A 
HETATM   12  C10   D T1240     -23.489  -0.966  13.560  1.00 28.58     0.040 A 
HETATM   13  C11   D T1240     -23.379  -0.275  12.259  1.00 23.69     0.064 A 
HETATM   14 CL1    D T1240     -24.039  -2.520  13.548  1.00  5.79    -0.087 Cl
HETATM   15  C12   D T1240     -22.886   1.079  12.213  1.00 23.56    -0.020 A 
ENDBRANCH   4   9
BRANCH   5  16
HETATM   16  C15   D T1240     -19.500   2.477  13.132  1.00 31.62     0.046 C 
HETATM   17  C16   D T1240     -18.883   2.065  14.462  1.00 31.37     0.007 C 
ENDBRANCH   5  16
TORSDOF 2
ENDMDL
MODEL 6
REMARK VINA RESULT:    -6.295      3.922      6.431
REMARK INTER + INTRA:          -7.602
REMARK INTER:                  -7.156
REMARK INTRA:                  -0.447
REMARK UNBOUND:                -0.572
REMARK  2 active torsions:
REMARK  status: ('A' for Active; 'I' for Inactive)
REMARK    1  A    between atoms: C4_4  and  C7_7 
REMARK    2  A    between atoms: C5_5  and  C15_15 
ROOT
HETATM    1  N1    D T1240     -22.571   2.506  13.727  1.00 25.62    -0.194 NA
HETATM    2  C2    D T1240     -21.213   2.369  13.512  1.00 23.58     0.239 A 
HETATM    3  C3    D T1240     -23.220   3.696  13.300  1.00 22.29     0.187 A 
HETATM    4  C4    D T1240     -22.483   4.812  12.642  1.00 21.48     0.051 A 
HETATM    5  C5    D T1240     -21.019   4.508  12.460  1.00 26.18     0.065 A 
HETATM    6  N6    D T1240     -20.440   3.339  12.880  1.00 28.81    -0.219 NA
HETATM    7  N13   D T1240     -24.531   3.843  13.492  1.00 22.31    -0.127 N 
HETATM    8  N14   D T1240     -20.568   1.205  13.953  1.00 25.45    -0.060 NA
ENDROOT
BRANCH   4   9
HETATM    9  C7    D T1240     -23.125   6.067  12.222  1.00 23.16     0.000 A 
HETATM   10  C8    D T1240     -23.123   7.262  13.079  1.00 23.74     0.000 A 
HETATM   11  C9    D T1240     -23.729   8.511  12.688  1.00 22.05     0.007 A 
HETATM   12  C10   D T1240     -24.350   8.616  11.454  1.00 28.58     0.040 A 
HETATM   13  C11   D T1240     -24.379   7.454  10.543  1.00 23.69     0.064 A 
HETATM   14 CL1    D T1240     -25.086   9.999  10.938  1.00  5.79    -0.087 Cl
HETATM   15  C12   D T1240     -23.765   6.215  10.953  1.00 23.56    -0.020 A 
ENDBRANCH   4   9
BRANCH   5  16
HETATM   16  C15   D T1240     -20.122   5.520  11.786  1.00 31.62     0.046 C 
HETATM   17  C16   D T1240     -18.969   4.933  10.984  1.00 31.37     0.007 C 
ENDBRANCH   5  16
TORSDOF 2
ENDMDL
MODEL 7
REMARK VINA RESULT:    -5.689      4.067      5.768
REMARK INTER + INTRA:          -6.925
REMARK INTER:                  -6.418
REMARK INTRA:                  -0.507
REMARK UNBOUND:                -0.572
REMARK  2 active torsions:
REMARK  status: ('A' for Active; 'I' for Inactive)
REMARK    1  A    between atoms: C4_4  and  C7_7 
REMARK    2  A    between atoms: C5_5  and  C15_15 
ROOT
HETATM    1  N1    D T1240     -25.974  -0.404  10.656  1.00 25.62    -0.194 NA
HETATM    2  C2    D T1240     -25.517  -1.586  11.210  1.00 23.58     0.239 A 
HETATM    3  C3    D T1240     -25.377   0.821  11.058  1.00 22.29     0.187 A 
HETATM    4  C4    D T1240     -24.284   0.879  12.070  1.00 21.48     0.051 A 
HETATM    5  C5    D T1240     -23.883  -0.486  12.566  1.00 26.18     0.065 A 
HETATM    6  N6    D T1240     -24.484  -1.642  12.140  1.00 28.81    -0.219 NA
HETATM    7  N13   D T1240     -25.798   1.969  10.530  1.00 22.31    -0.127 N 
HETATM    8  N14   D T1240     -26.121  -2.792  10.831  1.00 25.45    -0.060 NA
ENDROOT
BRANCH   4   9
HETATM    9  C7    D T1240     -23.674   2.136  12.528  1.00 23.16     0.000 A 
HETATM   10  C8    D T1240     -24.305   2.975  13.557  1.00 23.74     0.000 A 
HETATM   11  C9    D T1240     -23.724   4.203  14.038  1.00 22.05     0.007 A 
HETATM   12  C10   D T1240     -22.513   4.638  13.522  1.00 28.58     0.040 A 
HETATM   13  C11   D T1240     -21.823   3.836  12.491  1.00 23.69     0.064 A 
HETATM   14 CL1    D T1240     -21.789   6.041  13.999  1.00  5.79    -0.087 Cl
HETATM   15  C12   D T1240     -22.422   2.610  12.026  1.00 23.56    -0.020 A 
ENDBRANCH   4   9
BRANCH   5  16
HETATM   16  C15   D T1240     -22.772  -0.618  13.580  1.00 31.62     0.046 C 
HETATM   17  C16   D T1240     -23.187  -0.412  15.029  1.00 31.37     0.007 C 
ENDBRANCH   5  16
TORSDOF 2
ENDMDL
MODEL 8
REMARK VINA RESULT:    -5.670      4.564      6.240
REMARK INTER + INTRA:          -6.904
REMARK INTER:                  -6.468
REMARK INTRA:                  -0.437
REMARK UNBOUND:                -0.572
REMARK  2 active torsions:
REMARK  status: ('A' for Active; 'I' for Inactive)
REMARK    1  A    between atoms: C4_4  and  C7_7 
REMARK    2  A    between atoms: C5_5  and  C15_15 
ROOT
HETATM    1  N1    D T1240     -23.324   2.153  13.621  1.00 25.62    -0.194 NA
HETATM    2  C2    D T1240     -23.604   2.777  12.419  1.00 23.58     0.239 A 
HETATM    3  C3    D T1240     -23.408   0.737  13.698  1.00 22.29     0.187 A 
HETATM    4  C4    D T1240     -23.805  -0.102  12.532  1.00 21.48     0.051 A 
HETATM    5  C5    D T1240     -24.059   0.716  11.293  1.00 26.18     0.065 A 
HETATM    6  N6    D T1240     -23.955   2.083  11.265  1.00 28.81    -0.219 NA
HETATM    7  N13   D T1240     -23.134   0.117  14.846  1.00 22.31    -0.127 N 
HETATM    8  N14   D T1240     -23.544   4.174  12.348  1.00 25.45    -0.060 NA
ENDROOT
BRANCH   4   9
HETATM    9  C7    D T1240     -23.932  -1.566  12.595  1.00 23.16     0.000 A 
HETATM   10  C8    D T1240     -25.244  -2.229  12.627  1.00 23.74     0.000 A 
HETATM   11  C9    D T1240     -25.401  -3.661  12.673  1.00 22.05     0.007 A 
HETATM   12  C10   D T1240     -24.279  -4.475  12.690  1.00 28.58     0.040 A 
HETATM   13  C11   D T1240     -22.932  -3.871  12.651  1.00 23.69     0.064 A 
HETATM   14 CL1    D T1240     -24.369  -6.120  12.765  1.00  5.79    -0.087 Cl
HETATM   15  C12   D T1240     -22.798  -2.436  12.604  1.00 23.56    -0.020 A 
ENDBRANCH   4   9
BRANCH   5  16
HETATM   16  C15   D T1240     -24.448   0.027  10.006  1.00 31.62     0.046 C 
HETATM   17  C16   D T1240     -25.933   0.057   9.678  1.00 31.37     0.007 C 
ENDBRANCH   5  16
TORSDOF 2
ENDMDL
MODEL 9
REMARK VINA RESULT:    -5.660      3.357      4.834
REMARK INTER + INTRA:          -6.894
REMARK INTER:                  -6.433
REMARK INTRA:                  -0.460
REMARK UNBOUND:                -0.572
REMARK  2 active torsions:
REMARK  status: ('A' for Active; 'I' for Inactive)
REMARK    1  A    between atoms: C4_4  and  C7_7 
REMARK    2  A    between atoms: C5_5  and  C15_15 
ROOT
HETATM    1  N1    D T1240     -25.332  -0.005   9.849  1.00 25.62    -0.194 NA
HETATM    2  C2    D T1240     -26.037   1.148   9.557  1.00 23.58     0.239 A 
HETATM    3  C3    D T1240     -24.217   0.072  10.727  1.00 22.29     0.187 A 
HETATM    4  C4    D T1240     -23.770   1.358  11.334  1.00 21.48     0.051 A 
HETATM    5  C5    D T1240     -24.646   2.518  10.938  1.00 26.18     0.065 A 
HETATM    6  N6    D T1240     -25.718   2.391  10.094  1.00 28.81    -0.219 NA
HETATM    7  N13   D T1240     -23.531  -1.030  11.026  1.00 22.31    -0.127 N 
HETATM    8  N14   D T1240     -27.122   1.076   8.673  1.00 25.45    -0.060 NA
ENDROOT
BRANCH   4   9
HETATM    9  C7    D T1240     -22.601   1.470  12.218  1.00 23.16     0.000 A 
HETATM   10  C8    D T1240     -21.255   1.741  11.692  1.00 23.74     0.000 A 
HETATM   11  C9    D T1240     -20.092   1.873  12.534  1.00 22.05     0.007 A 
HETATM   12  C10   D T1240     -20.221   1.740  13.908  1.00 28.58     0.040 A 
HETATM   13  C11   D T1240     -21.548   1.475  14.500  1.00 23.69     0.064 A 
HETATM   14 CL1    D T1240     -18.940   1.853  14.941  1.00  5.79    -0.087 Cl
HETATM   15  C12   D T1240     -22.697   1.349  13.639  1.00 23.56    -0.020 A 
ENDBRANCH   4   9
BRANCH   5  16
HETATM   16  C15   D T1240     -24.353   3.897  11.482  1.00 31.62     0.046 C 
HETATM   17  C16   D T1240     -24.793   5.051  10.593  1.00 31.37     0.007 C 
ENDBRANCH   5  16
TORSDOF 2
ENDMDL
