MODEL 1
REMARK VINA RESULT:    -9.419      0.000      0.000
REMARK INTER + INTRA:         -13.904
REMARK INTER:                 -12.723
REMARK INTRA:                  -1.180
REMARK UNBOUND:                -1.180
REMARK  6 active torsions:
REMARK  status: ('A' for Active; 'I' for Inactive)
REMARK    1  A    between atoms: NBF_3  and  CAN_4 
REMARK    2  A    between atoms: NBG_8  and  CAS_9 
REMARK    3  A    between atoms: CAS_9  and  CAX_10 
REMARK    4  A    between atoms: CAY_15  and  CBA_16 
REMARK    5  A    between atoms: NAV_25  and  CBE_26 
REMARK    6  A    between atoms: CBE_26  and  CAZ_28 
ROOT
HETATM    1  CBA   D T2017       4.920  12.345   1.700  1.00 70.26     0.083 A 
HETATM    2  NAW   D T2017       3.694  11.818   1.706  1.00 69.72    -0.227 NA
HETATM    3  CAM   D T2017       4.954  13.360   0.836  1.00 68.99     0.025 A 
HETATM    4  C5    D T2017       3.749  13.478   0.289  1.00 68.84     0.073 A 
HETATM    5  C4    D T2017       2.947  12.497   0.842  1.00 68.77     0.167 A 
HETATM    6  N3    D T2017       1.667  12.399   0.456  1.00 68.59    -0.205 NA
HETATM    7  C2    D T2017       1.173  13.232  -0.447  1.00 69.65     0.202 A 
HETATM    8  N1    D T2017       1.916  14.182  -0.996  1.00 69.48    -0.205 NA
HETATM    9  C6    D T2017       3.201  14.333  -0.653  1.00 69.36     0.163 A 
HETATM   10  NAV   D T2017       3.942  15.289  -1.207  1.00 70.92    -0.250 NA
ENDROOT
BRANCH   1  11
HETATM   11  CAY   D T2017       5.989  11.906   2.473  1.00 71.68     0.018 A 
HETATM   12  CAK   D T2017       5.784  10.952   3.463  1.00 73.27     0.001 A 
HETATM   13  CAI   D T2017       6.855  10.514   4.236  1.00 74.78    -0.002 A 
HETATM   14  CAX   D T2017       8.127  11.029   4.018  1.00 77.32     0.011 A 
HETATM   15  CAJ   D T2017       8.330  11.983   3.027  1.00 74.40    -0.002 A 
HETATM   16  CAL   D T2017       7.261  12.420   2.254  1.00 72.43     0.001 A 
BRANCH  14  17
HETATM   17  CAS   D T2017       9.303  10.546   4.868  1.00 81.79     0.277 C 
BRANCH  17  18
HETATM   18  NBG   D T2017      10.549  11.149   4.371  1.00 86.70     0.146 N 
HETATM   19  CAQ   D T2017      11.447  10.091   3.887  1.00 87.93     0.286 C 
HETATM   20  CAO   D T2017      11.779   9.136   5.035  1.00 90.08     0.285 C 
HETATM   21  NBF   D T2017      12.436   9.881   6.120  1.00 91.56     0.141 N 
HETATM   22  CAP   D T2017      11.534  10.935   6.604  1.00 90.83     0.285 C 
HETATM   23  CAR   D T2017      11.204  11.893   5.457  1.00 89.55     0.286 C 
BRANCH  21  24
HETATM   24  CAN   D T2017      13.675  10.489   5.614  1.00 91.78     0.251 C 
HETATM   25  CAA   D T2017      14.783   9.435   5.574  1.00 91.26     0.037 C 
ENDBRANCH  21  24
ENDBRANCH  17  18
ENDBRANCH  14  17
ENDBRANCH   1  11
BRANCH  10  26
HETATM   26  CBE   D T2017       3.568  15.841  -2.517  1.00 72.13     0.127 C 
HETATM   27  CAB   D T2017       4.782  15.815  -3.447  1.00 72.05     0.031 C 
BRANCH  26  28
HETATM   28  CAZ   D T2017       3.086  17.283  -2.346  1.00 72.85    -0.000 A 
HETATM   29  CAG   D T2017       3.123  17.884  -1.094  1.00 73.42    -0.002 A 
HETATM   30  CAD   D T2017       2.685  19.195  -0.939  1.00 73.74    -0.000 A 
HETATM   31  CAC   D T2017       2.211  19.903  -2.038  1.00 73.88    -0.000 A 
HETATM   32  CAE   D T2017       2.174  19.301  -3.289  1.00 74.18    -0.000 A 
HETATM   33  CAH   D T2017       2.612  17.991  -3.444  1.00 74.00    -0.002 A 
ENDBRANCH  26  28
ENDBRANCH  10  26
TORSDOF 6
ENDMDL
MODEL 2
REMARK VINA RESULT:    -9.329      1.372      2.242
REMARK INTER + INTRA:         -13.781
REMARK INTER:                 -12.555
REMARK INTRA:                  -1.226
REMARK UNBOUND:                -1.180
REMARK  6 active torsions:
REMARK  status: ('A' for Active; 'I' for Inactive)
REMARK    1  A    between atoms: NBF_3  and  CAN_4 
REMARK    2  A    between atoms: NBG_8  and  CAS_9 
REMARK    3  A    between atoms: CAS_9  and  CAX_10 
REMARK    4  A    between atoms: CAY_15  and  CBA_16 
REMARK    5  A    between atoms: NAV_25  and  CBE_26 
REMARK    6  A    between atoms: CBE_26  and  CAZ_28 
ROOT
HETATM    1  CBA   D T2017       6.120  11.824   2.774  1.00 70.26     0.083 A 
HETATM    2  NAW   D T2017       4.939  11.497   3.305  1.00 69.72    -0.227 NA
HETATM    3  CAM   D T2017       5.916  12.466   1.623  1.00 68.99     0.025 A 
HETATM    4  C5    D T2017       4.605  12.547   1.421  1.00 68.84     0.073 A 
HETATM    5  C4    D T2017       3.984  11.930   2.491  1.00 68.77     0.167 A 
HETATM    6  N3    D T2017       2.646  11.875   2.531  1.00 68.59    -0.205 NA
HETATM    7  C2    D T2017       1.922  12.404   1.556  1.00 69.65     0.202 A 
HETATM    8  N1    D T2017       2.487  13.001   0.517  1.00 69.48    -0.205 NA
HETATM    9  C6    D T2017       3.820  13.090   0.417  1.00 69.36     0.163 A 
HETATM   10  NAV   D T2017       4.382  13.691  -0.628  1.00 70.92    -0.250 NA
ENDROOT
BRANCH   1  11
HETATM   11  CAY   D T2017       7.360  11.541   3.332  1.00 71.68     0.018 A 
HETATM   12  CAK   D T2017       7.506  10.454   4.186  1.00 73.27     0.001 A 
HETATM   13  CAI   D T2017       8.750  10.172   4.744  1.00 74.78    -0.002 A 
HETATM   14  CAX   D T2017       9.843  10.976   4.448  1.00 77.32     0.011 A 
HETATM   15  CAJ   D T2017       9.696  12.063   3.594  1.00 74.40    -0.002 A 
HETATM   16  CAL   D T2017       8.455  12.345   3.035  1.00 72.43     0.001 A 
BRANCH  14  17
HETATM   17  CAS   D T2017      11.209  10.664   5.062  1.00 81.79     0.277 C 
BRANCH  17  18
HETATM   18  NBG   D T2017      11.768   9.460   4.429  1.00 86.70     0.146 N 
HETATM   19  CAQ   D T2017      12.462   8.651   5.441  1.00 87.93     0.286 C 
HETATM   20  CAO   D T2017      13.601   9.466   6.056  1.00 90.08     0.285 C 
HETATM   21  NBF   D T2017      14.551   9.856   5.002  1.00 91.56     0.141 N 
HETATM   22  CAP   D T2017      13.855  10.668   3.994  1.00 90.83     0.285 C 
HETATM   23  CAR   D T2017      12.717   9.853   3.377  1.00 89.55     0.286 C 
BRANCH  21  24
HETATM   24  CAN   D T2017      15.098   8.649   4.367  1.00 91.78     0.251 C 
HETATM   25  CAA   D T2017      16.394   9.001   3.632  1.00 91.26     0.037 C 
ENDBRANCH  21  24
ENDBRANCH  17  18
ENDBRANCH  14  17
ENDBRANCH   1  11
BRANCH  10  26
HETATM   26  CBE   D T2017       3.644  13.803  -1.894  1.00 72.13     0.127 C 
HETATM   27  CAB   D T2017       4.389  13.037  -2.989  1.00 72.05     0.031 C 
BRANCH  26  28
HETATM   28  CAZ   D T2017       3.527  15.276  -2.291  1.00 72.85    -0.000 A 
HETATM   29  CAG   D T2017       2.430  16.021  -1.879  1.00 73.42    -0.002 A 
HETATM   30  CAD   D T2017       2.324  17.360  -2.238  1.00 73.74    -0.000 A 
HETATM   31  CAC   D T2017       3.317  17.953  -3.010  1.00 73.88    -0.000 A 
HETATM   32  CAE   D T2017       4.414  17.207  -3.422  1.00 74.18    -0.000 A 
HETATM   33  CAH   D T2017       4.520  15.868  -3.062  1.00 74.00    -0.002 A 
ENDBRANCH  26  28
ENDBRANCH  10  26
TORSDOF 6
ENDMDL
MODEL 3
REMARK VINA RESULT:    -9.220      1.474      2.424
REMARK INTER + INTRA:         -13.634
REMARK INTER:                 -12.434
REMARK INTRA:                  -1.201
REMARK UNBOUND:                -1.180
REMARK  6 active torsions:
REMARK  status: ('A' for Active; 'I' for Inactive)
REMARK    1  A    between atoms: NBF_3  and  CAN_4 
REMARK    2  A    between atoms: NBG_8  and  CAS_9 
REMARK    3  A    between atoms: CAS_9  and  CAX_10 
REMARK    4  A    between atoms: CAY_15  and  CBA_16 
REMARK    5  A    between atoms: NAV_25  and  CBE_26 
REMARK    6  A    between atoms: CBE_26  and  CAZ_28 
ROOT
HETATM    1  CBA   D T2017       6.088  11.838   2.740  1.00 70.26     0.083 A 
HETATM    2  NAW   D T2017       4.910  11.538   3.293  1.00 69.72    -0.227 NA
HETATM    3  CAM   D T2017       5.878  12.486   1.593  1.00 68.99     0.025 A 
HETATM    4  C5    D T2017       4.566  12.597   1.415  1.00 68.84     0.073 A 
HETATM    5  C4    D T2017       3.950  11.994   2.496  1.00 68.77     0.167 A 
HETATM    6  N3    D T2017       2.612  11.970   2.560  1.00 68.59    -0.205 NA
HETATM    7  C2    D T2017       1.884  12.517   1.600  1.00 69.65     0.202 A 
HETATM    8  N1    D T2017       2.444  13.101   0.550  1.00 69.48    -0.205 NA
HETATM    9  C6    D T2017       3.776  13.159   0.426  1.00 69.36     0.163 A 
HETATM   10  NAV   D T2017       4.332  13.748  -0.629  1.00 70.92    -0.250 NA
ENDROOT
BRANCH   1  11
HETATM   11  CAY   D T2017       7.332  11.525   3.275  1.00 71.68     0.018 A 
HETATM   12  CAK   D T2017       8.442  12.294   2.944  1.00 73.27     0.001 A 
HETATM   13  CAI   D T2017       9.687  11.980   3.481  1.00 74.78    -0.002 A 
HETATM   14  CAX   D T2017       9.820  10.900   4.344  1.00 77.32     0.011 A 
HETATM   15  CAJ   D T2017       8.710  10.133   4.673  1.00 74.40    -0.002 A 
HETATM   16  CAL   D T2017       7.465  10.446   4.140  1.00 72.43     0.001 A 
BRANCH  14  17
HETATM   17  CAS   D T2017      11.190  10.557   4.933  1.00 81.79     0.277 C 
BRANCH  17  18
HETATM   18  NBG   D T2017      11.097  10.514   6.400  1.00 86.70     0.146 N 
HETATM   19  CAQ   D T2017      11.882  11.617   6.973  1.00 87.93     0.286 C 
HETATM   20  CAO   D T2017      13.348  11.470   6.562  1.00 90.08     0.285 C 
HETATM   21  NBF   D T2017      13.870  10.186   7.054  1.00 91.56     0.141 N 
HETATM   22  CAP   D T2017      13.086   9.086   6.476  1.00 90.83     0.285 C 
HETATM   23  CAR   D T2017      11.621   9.230   6.889  1.00 89.55     0.286 C 
BRANCH  21  24
HETATM   24  CAN   D T2017      13.766  10.146   8.520  1.00 91.78     0.251 C 
HETATM   25  CAA   D T2017      14.742   9.105   9.074  1.00 91.26     0.037 C 
ENDBRANCH  21  24
ENDBRANCH  17  18
ENDBRANCH  14  17
ENDBRANCH   1  11
BRANCH  10  26
HETATM   26  CBE   D T2017       3.574  13.879  -1.881  1.00 72.13     0.127 C 
HETATM   27  CAB   D T2017       4.261  13.066  -2.980  1.00 72.05     0.031 C 
BRANCH  26  28
HETATM   28  CAZ   D T2017       3.516  15.351  -2.294  1.00 72.85    -0.000 A 
HETATM   29  CAG   D T2017       2.448  16.143  -1.895  1.00 73.42    -0.002 A 
HETATM   30  CAD   D T2017       2.396  17.481  -2.269  1.00 73.74    -0.000 A 
HETATM   31  CAC   D T2017       3.414  18.025  -3.044  1.00 73.88    -0.000 A 
HETATM   32  CAE   D T2017       4.482  17.233  -3.443  1.00 74.18    -0.000 A 
HETATM   33  CAH   D T2017       4.535  15.895  -3.068  1.00 74.00    -0.002 A 
ENDBRANCH  26  28
ENDBRANCH  10  26
TORSDOF 6
ENDMDL
MODEL 4
REMARK VINA RESULT:    -8.200      4.997      9.489
REMARK INTER + INTRA:         -12.256
REMARK INTER:                 -11.375
REMARK INTRA:                  -0.881
REMARK UNBOUND:                -1.180
REMARK  6 active torsions:
REMARK  status: ('A' for Active; 'I' for Inactive)
REMARK    1  A    between atoms: NBF_3  and  CAN_4 
REMARK    2  A    between atoms: NBG_8  and  CAS_9 
REMARK    3  A    between atoms: CAS_9  and  CAX_10 
REMARK    4  A    between atoms: CAY_15  and  CBA_16 
REMARK    5  A    between atoms: NAV_25  and  CBE_26 
REMARK    6  A    between atoms: CBE_26  and  CAZ_28 
ROOT
HETATM    1  CBA   D T2017       5.344  16.733  -4.404  1.00 70.26     0.083 A 
HETATM    2  NAW   D T2017       4.960  17.904  -4.916  1.00 69.72    -0.227 NA
HETATM    3  CAM   D T2017       6.570  16.446  -4.844  1.00 68.99     0.025 A 
HETATM    4  C5    D T2017       6.966  17.434  -5.639  1.00 68.84     0.073 A 
HETATM    5  C4    D T2017       5.942  18.362  -5.685  1.00 68.77     0.167 A 
HETATM    6  N3    D T2017       6.091  19.468  -6.427  1.00 68.59    -0.205 NA
HETATM    7  C2    D T2017       7.206  19.673  -7.110  1.00 69.65     0.202 A 
HETATM    8  N1    D T2017       8.206  18.803  -7.087  1.00 69.48    -0.205 NA
HETATM    9  C6    D T2017       8.120  17.678  -6.365  1.00 69.36     0.163 A 
HETATM   10  NAV   D T2017       9.127  16.809  -6.345  1.00 70.92    -0.250 NA
ENDROOT
BRANCH   1  11
HETATM   11  CAY   D T2017       4.588  15.942  -3.548  1.00 71.68     0.018 A 
HETATM   12  CAK   D T2017       4.762  14.562  -3.542  1.00 73.27     0.001 A 
HETATM   13  CAI   D T2017       4.004  13.771  -2.684  1.00 74.78    -0.002 A 
HETATM   14  CAX   D T2017       3.074  14.359  -1.835  1.00 77.32     0.011 A 
HETATM   15  CAJ   D T2017       2.901  15.738  -1.842  1.00 74.40    -0.002 A 
HETATM   16  CAL   D T2017       3.658  16.529  -2.697  1.00 72.43     0.001 A 
BRANCH  14  17
HETATM   17  CAS   D T2017       2.242  13.487  -0.893  1.00 81.79     0.277 C 
BRANCH  17  18
HETATM   18  NBG   D T2017       2.508  13.877   0.500  1.00 86.70     0.146 N 
HETATM   19  CAQ   D T2017       3.903  13.563   0.839  1.00 87.93     0.286 C 
HETATM   20  CAO   D T2017       4.140  12.059   0.688  1.00 90.08     0.285 C 
HETATM   21  NBF   D T2017       3.237  11.326   1.589  1.00 91.56     0.141 N 
HETATM   22  CAP   D T2017       1.843  11.640   1.244  1.00 90.83     0.285 C 
HETATM   23  CAR   D T2017       1.605  13.143   1.398  1.00 89.55     0.286 C 
BRANCH  21  24
HETATM   24  CAN   D T2017       3.501  11.727   2.978  1.00 91.78     0.251 C 
HETATM   25  CAA   D T2017       4.937  11.357   3.354  1.00 91.26     0.037 C 
ENDBRANCH  21  24
ENDBRANCH  17  18
ENDBRANCH  14  17
ENDBRANCH   1  11
BRANCH  10  26
HETATM   26  CBE   D T2017      10.092  16.778  -7.453  1.00 72.13     0.127 C 
HETATM   27  CAB   D T2017       9.407  16.240  -8.711  1.00 72.05     0.031 C 
BRANCH  26  28
HETATM   28  CAZ   D T2017      11.266  15.870  -7.084  1.00 72.85    -0.000 A 
HETATM   29  CAG   D T2017      11.401  15.404  -5.782  1.00 73.42    -0.002 A 
HETATM   30  CAD   D T2017      12.469  14.578  -5.446  1.00 73.74    -0.000 A 
HETATM   31  CAC   D T2017      13.401  14.220  -6.414  1.00 73.88    -0.000 A 
HETATM   32  CAE   D T2017      13.266  14.688  -7.715  1.00 74.18    -0.000 A 
HETATM   33  CAH   D T2017      12.198  15.512  -8.051  1.00 74.00    -0.002 A 
ENDBRANCH  26  28
ENDBRANCH  10  26
TORSDOF 6
ENDMDL
MODEL 5
REMARK VINA RESULT:    -8.007      3.470     10.209
REMARK INTER + INTRA:         -11.996
REMARK INTER:                 -11.184
REMARK INTRA:                  -0.812
REMARK UNBOUND:                -1.180
REMARK  6 active torsions:
REMARK  status: ('A' for Active; 'I' for Inactive)
REMARK    1  A    between atoms: NBF_3  and  CAN_4 
REMARK    2  A    between atoms: NBG_8  and  CAS_9 
REMARK    3  A    between atoms: CAS_9  and  CAX_10 
REMARK    4  A    between atoms: CAY_15  and  CBA_16 
REMARK    5  A    between atoms: NAV_25  and  CBE_26 
REMARK    6  A    between atoms: CBE_26  and  CAZ_28 
ROOT
HETATM    1  CBA   D T2017       3.664  14.715  -1.783  1.00 70.26     0.083 A 
HETATM    2  NAW   D T2017       2.369  14.661  -1.464  1.00 69.72    -0.227 NA
HETATM    3  CAM   D T2017       4.353  13.943  -0.940  1.00 68.99     0.025 A 
HETATM    4  C5    D T2017       3.495  13.399  -0.084  1.00 68.84     0.073 A 
HETATM    5  C4    D T2017       2.233  13.855  -0.417  1.00 68.77     0.167 A 
HETATM    6  N3    D T2017       1.177  13.449   0.301  1.00 68.59    -0.205 NA
HETATM    7  C2    D T2017       1.337  12.619   1.320  1.00 69.65     0.202 A 
HETATM    8  N1    D T2017       2.533  12.164   1.665  1.00 69.48    -0.205 NA
HETATM    9  C6    D T2017       3.629  12.532   0.988  1.00 69.36     0.163 A 
HETATM   10  NAV   D T2017       4.826  12.072   1.339  1.00 70.92    -0.250 NA
ENDROOT
BRANCH   1  11
HETATM   11  CAY   D T2017       4.207  15.457  -2.825  1.00 71.68     0.018 A 
HETATM   12  CAK   D T2017       4.961  14.824  -3.808  1.00 73.27     0.001 A 
HETATM   13  CAI   D T2017       5.504  15.568  -4.851  1.00 74.78    -0.002 A 
HETATM   14  CAX   D T2017       5.294  16.940  -4.910  1.00 77.32     0.011 A 
HETATM   15  CAJ   D T2017       4.541  17.571  -3.927  1.00 74.40    -0.002 A 
HETATM   16  CAL   D T2017       3.997  16.829  -2.885  1.00 72.43     0.001 A 
BRANCH  14  17
HETATM   17  CAS   D T2017       5.892  17.756  -6.058  1.00 81.79     0.277 C 
BRANCH  17  18
HETATM   18  NBG   D T2017       6.919  18.667  -5.530  1.00 86.70     0.146 N 
HETATM   19  CAQ   D T2017       7.183  19.729  -6.511  1.00 87.93     0.286 C 
HETATM   20  CAO   D T2017       7.690  19.107  -7.813  1.00 90.08     0.285 C 
HETATM   21  NBF   D T2017       8.930  18.359  -7.551  1.00 91.56     0.141 N 
HETATM   22  CAP   D T2017       8.660  17.296  -6.573  1.00 90.83     0.285 C 
HETATM   23  CAR   D T2017       8.156  17.917  -5.269  1.00 89.55     0.286 C 
BRANCH  21  24
HETATM   24  CAN   D T2017       9.948  19.273  -7.015  1.00 91.78     0.251 C 
HETATM   25  CAA   D T2017      11.331  18.849  -7.515  1.00 91.26     0.037 C 
ENDBRANCH  21  24
ENDBRANCH  17  18
ENDBRANCH  14  17
ENDBRANCH   1  11
BRANCH  10  26
HETATM   26  CBE   D T2017       5.059  11.601   2.711  1.00 72.13     0.127 C 
HETATM   27  CAB   D T2017       4.670  12.701   3.700  1.00 72.05     0.031 C 
BRANCH  26  28
HETATM   28  CAZ   D T2017       6.538  11.253   2.890  1.00 72.85    -0.000 A 
HETATM   29  CAG   D T2017       7.429  11.448   1.842  1.00 73.42    -0.002 A 
HETATM   30  CAD   D T2017       8.773  11.132   2.004  1.00 73.74    -0.000 A 
HETATM   31  CAC   D T2017       9.225  10.622   3.216  1.00 73.88    -0.000 A 
HETATM   32  CAE   D T2017       8.334  10.427   4.263  1.00 74.18    -0.000 A 
HETATM   33  CAH   D T2017       6.990  10.743   4.101  1.00 74.00    -0.002 A 
ENDBRANCH  26  28
ENDBRANCH  10  26
TORSDOF 6
ENDMDL
MODEL 6
REMARK VINA RESULT:    -7.990      4.609      7.995
REMARK INTER + INTRA:         -11.974
REMARK INTER:                 -11.416
REMARK INTRA:                  -0.557
REMARK UNBOUND:                -1.180
REMARK  6 active torsions:
REMARK  status: ('A' for Active; 'I' for Inactive)
REMARK    1  A    between atoms: NBF_3  and  CAN_4 
REMARK    2  A    between atoms: NBG_8  and  CAS_9 
REMARK    3  A    between atoms: CAS_9  and  CAX_10 
REMARK    4  A    between atoms: CAY_15  and  CBA_16 
REMARK    5  A    between atoms: NAV_25  and  CBE_26 
REMARK    6  A    between atoms: CBE_26  and  CAZ_28 
ROOT
HETATM    1  CBA   D T2017       7.474  13.515   1.309  1.00 70.26     0.083 A 
HETATM    2  NAW   D T2017       7.964  12.591   2.138  1.00 69.72    -0.227 NA
HETATM    3  CAM   D T2017       6.141  13.499   1.377  1.00 68.99     0.025 A 
HETATM    4  C5    D T2017       5.784  12.562   2.249  1.00 68.84     0.073 A 
HETATM    5  C4    D T2017       6.943  11.984   2.733  1.00 68.77     0.167 A 
HETATM    6  N3    D T2017       6.858  11.000   3.638  1.00 68.59    -0.205 NA
HETATM    7  C2    D T2017       5.677  10.582   4.066  1.00 69.65     0.202 A 
HETATM    8  N1    D T2017       4.548  11.114   3.622  1.00 69.48    -0.205 NA
HETATM    9  C6    D T2017       4.564  12.101   2.717  1.00 69.36     0.163 A 
HETATM   10  NAV   D T2017       3.428  12.633   2.275  1.00 70.92    -0.250 NA
ENDROOT
BRANCH   1  11
HETATM   11  CAY   D T2017       8.230  14.359   0.505  1.00 71.68     0.018 A 
HETATM   12  CAK   D T2017       7.612  15.113  -0.486  1.00 73.27     0.001 A 
HETATM   13  CAI   D T2017       8.371  15.958  -1.290  1.00 74.78    -0.002 A 
HETATM   14  CAX   D T2017       9.744  16.048  -1.103  1.00 77.32     0.011 A 
HETATM   15  CAJ   D T2017      10.361  15.294  -0.111  1.00 74.40    -0.002 A 
HETATM   16  CAL   D T2017       9.604  14.451   0.693  1.00 72.43     0.001 A 
BRANCH  14  17
HETATM   17  CAS   D T2017      10.577  16.978  -1.987  1.00 81.79     0.277 C 
BRANCH  17  18
HETATM   18  NBG   D T2017      11.512  16.179  -2.795  1.00 86.70     0.146 N 
HETATM   19  CAQ   D T2017      12.722  16.968  -3.066  1.00 87.93     0.286 C 
HETATM   20  CAO   D T2017      12.346  18.232  -3.842  1.00 90.08     0.285 C 
HETATM   21  NBF   D T2017      11.707  17.858  -5.113  1.00 91.56     0.141 N 
HETATM   22  CAP   D T2017      10.496  17.073  -4.838  1.00 90.83     0.285 C 
HETATM   23  CAR   D T2017      10.871  15.807  -4.065  1.00 89.55     0.286 C 
BRANCH  21  24
HETATM   24  CAN   D T2017      12.642  17.052  -5.911  1.00 91.78     0.251 C 
HETATM   25  CAA   D T2017      12.335  17.237  -7.399  1.00 91.26     0.037 C 
ENDBRANCH  21  24
ENDBRANCH  17  18
ENDBRANCH  14  17
ENDBRANCH   1  11
BRANCH  10  26
HETATM   26  CBE   D T2017       2.180  11.859   2.345  1.00 72.13     0.127 C 
HETATM   27  CAB   D T2017       2.448  10.418   1.909  1.00 72.05     0.031 C 
BRANCH  26  28
HETATM   28  CAZ   D T2017       1.135  12.487   1.421  1.00 72.85    -0.000 A 
HETATM   29  CAG   D T2017       0.006  13.092   1.958  1.00 73.42    -0.002 A 
HETATM   30  CAD   D T2017      -0.943  13.664   1.117  1.00 73.74    -0.000 A 
HETATM   31  CAC   D T2017      -0.761  13.629  -0.261  1.00 73.88    -0.000 A 
HETATM   32  CAE   D T2017       0.368  13.023  -0.797  1.00 74.18    -0.000 A 
HETATM   33  CAH   D T2017       1.317  12.453   0.043  1.00 74.00    -0.002 A 
ENDBRANCH  26  28
ENDBRANCH  10  26
TORSDOF 6
ENDMDL
MODEL 7
REMARK VINA RESULT:    -7.987      1.968      3.444
REMARK INTER + INTRA:         -11.969
REMARK INTER:                 -10.732
REMARK INTRA:                  -1.237
REMARK UNBOUND:                -1.180
REMARK  6 active torsions:
REMARK  status: ('A' for Active; 'I' for Inactive)
REMARK    1  A    between atoms: NBF_3  and  CAN_4 
REMARK    2  A    between atoms: NBG_8  and  CAS_9 
REMARK    3  A    between atoms: CAS_9  and  CAX_10 
REMARK    4  A    between atoms: CAY_15  and  CBA_16 
REMARK    5  A    between atoms: NAV_25  and  CBE_26 
REMARK    6  A    between atoms: CBE_26  and  CAZ_28 
ROOT
HETATM    1  CBA   D T2017       7.544  11.100   3.408  1.00 70.26     0.083 A 
HETATM    2  NAW   D T2017       6.401  10.760   4.007  1.00 69.72    -0.227 NA
HETATM    3  CAM   D T2017       7.269  11.833   2.328  1.00 68.99     0.025 A 
HETATM    4  C5    D T2017       5.949  11.958   2.239  1.00 68.84     0.073 A 
HETATM    5  C4    D T2017       5.397  11.276   3.306  1.00 68.77     0.167 A 
HETATM    6  N3    D T2017       4.065  11.247   3.450  1.00 68.59    -0.205 NA
HETATM    7  C2    D T2017       3.283  11.865   2.579  1.00 69.65     0.202 A 
HETATM    8  N1    D T2017       3.781  12.528   1.544  1.00 69.48    -0.205 NA
HETATM    9  C6    D T2017       5.103  12.594   1.345  1.00 69.36     0.163 A 
HETATM   10  NAV   D T2017       5.598  13.261   0.305  1.00 70.92    -0.250 NA
ENDROOT
BRANCH   1  11
HETATM   11  CAY   D T2017       8.817  10.748   3.841  1.00 71.68     0.018 A 
HETATM   12  CAK   D T2017       8.998   9.596   4.599  1.00 73.27     0.001 A 
HETATM   13  CAI   D T2017      10.273   9.245   5.032  1.00 74.78    -0.002 A 
HETATM   14  CAX   D T2017      11.363  10.044   4.709  1.00 77.32     0.011 A 
HETATM   15  CAJ   D T2017      11.180  11.194   3.951  1.00 74.40    -0.002 A 
HETATM   16  CAL   D T2017       9.908  11.546   3.516  1.00 72.43     0.001 A 
BRANCH  14  17
HETATM   17  CAS   D T2017      12.763   9.655   5.186  1.00 81.79     0.277 C 
BRANCH  17  18
HETATM   18  NBG   D T2017      13.242  10.646   6.162  1.00 86.70     0.146 N 
HETATM   19  CAQ   D T2017      14.709  10.703   6.124  1.00 87.93     0.286 C 
HETATM   20  CAO   D T2017      15.284   9.332   6.482  1.00 90.08     0.285 C 
HETATM   21  NBF   D T2017      14.841   8.951   7.833  1.00 91.56     0.141 N 
HETATM   22  CAP   D T2017      13.374   8.891   7.866  1.00 90.83     0.285 C 
HETATM   23  CAR   D T2017      12.798  10.263   7.510  1.00 89.55     0.286 C 
BRANCH  21  24
HETATM   24  CAN   D T2017      15.314   9.949   8.802  1.00 91.78     0.251 C 
HETATM   25  CAA   D T2017      15.389   9.316  10.193  1.00 91.26     0.037 C 
ENDBRANCH  21  24
ENDBRANCH  17  18
ENDBRANCH  14  17
ENDBRANCH   1  11
BRANCH  10  26
HETATM   26  CBE   D T2017       4.767  13.486  -0.885  1.00 72.13     0.127 C 
HETATM   27  CAB   D T2017       5.425  12.828  -2.099  1.00 72.05     0.031 C 
BRANCH  26  28
HETATM   28  CAZ   D T2017       4.625  14.989  -1.134  1.00 72.85    -0.000 A 
HETATM   29  CAG   D T2017       5.662  15.849  -0.799  1.00 73.42    -0.002 A 
HETATM   30  CAD   D T2017       5.533  17.215  -1.025  1.00 73.74    -0.000 A 
HETATM   31  CAC   D T2017       4.366  17.719  -1.587  1.00 73.88    -0.000 A 
HETATM   32  CAE   D T2017       3.329  16.858  -1.921  1.00 74.18    -0.000 A 
HETATM   33  CAH   D T2017       3.457  15.492  -1.696  1.00 74.00    -0.002 A 
ENDBRANCH  26  28
ENDBRANCH  10  26
TORSDOF 6
ENDMDL
MODEL 8
REMARK VINA RESULT:    -7.795      3.741      5.732
REMARK INTER + INTRA:         -11.709
REMARK INTER:                 -10.648
REMARK INTRA:                  -1.061
REMARK UNBOUND:                -1.180
REMARK  6 active torsions:
REMARK  status: ('A' for Active; 'I' for Inactive)
REMARK    1  A    between atoms: NBF_3  and  CAN_4 
REMARK    2  A    between atoms: NBG_8  and  CAS_9 
REMARK    3  A    between atoms: CAS_9  and  CAX_10 
REMARK    4  A    between atoms: CAY_15  and  CBA_16 
REMARK    5  A    between atoms: NAV_25  and  CBE_26 
REMARK    6  A    between atoms: CBE_26  and  CAZ_28 
ROOT
HETATM    1  CBA   D T2017       5.588  15.460  -1.534  1.00 70.26     0.083 A 
HETATM    2  NAW   D T2017       4.379  15.996  -1.718  1.00 69.72    -0.227 NA
HETATM    3  CAM   D T2017       6.415  15.920  -2.474  1.00 68.99     0.025 A 
HETATM    4  C5    D T2017       5.732  16.747  -3.258  1.00 68.84     0.073 A 
HETATM    5  C4    D T2017       4.436  16.796  -2.777  1.00 68.77     0.167 A 
HETATM    6  N3    D T2017       3.534  17.568  -3.397  1.00 68.59    -0.205 NA
HETATM    7  C2    D T2017       3.876  18.279  -4.460  1.00 69.65     0.202 A 
HETATM    8  N1    D T2017       5.109  18.254  -4.946  1.00 69.48    -0.205 NA
HETATM    9  C6    D T2017       6.057  17.503  -4.372  1.00 69.36     0.163 A 
HETATM   10  NAV   D T2017       7.294  17.482  -4.863  1.00 70.92    -0.250 NA
ENDROOT
BRANCH   1  11
HETATM   11  CAY   D T2017       5.929  14.568  -0.525  1.00 71.68     0.018 A 
HETATM   12  CAK   D T2017       5.953  13.203  -0.784  1.00 73.27     0.001 A 
HETATM   13  CAI   D T2017       6.295  12.311   0.228  1.00 74.78    -0.002 A 
HETATM   14  CAX   D T2017       6.611  12.784   1.496  1.00 77.32     0.011 A 
HETATM   15  CAJ   D T2017       6.587  14.150   1.753  1.00 74.40    -0.002 A 
HETATM   16  CAL   D T2017       6.247  15.042   0.743  1.00 72.43     0.001 A 
BRANCH  14  17
HETATM   17  CAS   D T2017       6.987  11.802   2.606  1.00 81.79     0.277 C 
BRANCH  17  18
HETATM   18  NBG   D T2017       8.097  10.950   2.153  1.00 86.70     0.146 N 
HETATM   19  CAQ   D T2017       8.160   9.742   2.988  1.00 87.93     0.286 C 
HETATM   20  CAO   D T2017       8.399  10.139   4.445  1.00 90.08     0.285 C 
HETATM   21  NBF   D T2017       9.667  10.877   4.552  1.00 91.56     0.141 N 
HETATM   22  CAP   D T2017       9.598  12.086   3.719  1.00 90.83     0.285 C 
HETATM   23  CAR   D T2017       9.362  11.690   2.261  1.00 89.55     0.286 C 
BRANCH  21  24
HETATM   24  CAN   D T2017      10.770  10.025   4.088  1.00 91.78     0.251 C 
HETATM   25  CAA   D T2017      11.120   9.005   5.174  1.00 91.26     0.037 C 
ENDBRANCH  21  24
ENDBRANCH  17  18
ENDBRANCH  14  17
ENDBRANCH   1  11
BRANCH  10  26
HETATM   26  CBE   D T2017       7.530  17.834  -6.271  1.00 72.13     0.127 C 
HETATM   27  CAB   D T2017       6.958  16.739  -7.173  1.00 72.05     0.031 C 
BRANCH  26  28
HETATM   28  CAZ   D T2017       9.033  17.968  -6.520  1.00 72.85    -0.000 A 
HETATM   29  CAG   D T2017       9.860  18.472  -5.524  1.00 73.42    -0.002 A 
HETATM   30  CAD   D T2017      11.227  18.593  -5.750  1.00 73.74    -0.000 A 
HETATM   31  CAC   D T2017      11.765  18.209  -6.973  1.00 73.88    -0.000 A 
HETATM   32  CAE   D T2017      10.938  17.705  -7.968  1.00 74.18    -0.000 A 
HETATM   33  CAH   D T2017       9.571  17.583  -7.742  1.00 74.00    -0.002 A 
ENDBRANCH  26  28
ENDBRANCH  10  26
TORSDOF 6
ENDMDL
MODEL 9
REMARK VINA RESULT:    -7.732      2.297     12.280
REMARK INTER + INTRA:         -11.624
REMARK INTER:                 -10.421
REMARK INTRA:                  -1.203
REMARK UNBOUND:                -1.180
REMARK  6 active torsions:
REMARK  status: ('A' for Active; 'I' for Inactive)
REMARK    1  A    between atoms: NBF_3  and  CAN_4 
REMARK    2  A    between atoms: NBG_8  and  CAS_9 
REMARK    3  A    between atoms: CAS_9  and  CAX_10 
REMARK    4  A    between atoms: CAY_15  and  CBA_16 
REMARK    5  A    between atoms: NAV_25  and  CBE_26 
REMARK    6  A    between atoms: CBE_26  and  CAZ_28 
ROOT
HETATM    1  CBA   D T2017       9.342  10.272   3.902  1.00 70.26     0.083 A 
HETATM    2  NAW   D T2017       9.028  10.112   5.189  1.00 69.72    -0.227 NA
HETATM    3  CAM   D T2017      10.576   9.811   3.694  1.00 68.99     0.025 A 
HETATM    4  C5    D T2017      11.049   9.359   4.850  1.00 68.84     0.073 A 
HETATM    5  C4    D T2017      10.065   9.550   5.802  1.00 68.77     0.167 A 
HETATM    6  N3    D T2017      10.292   9.174   7.068  1.00 68.59    -0.205 NA
HETATM    7  C2    D T2017      11.448   8.624   7.407  1.00 69.65     0.202 A 
HETATM    8  N1    D T2017      12.412   8.428   6.519  1.00 69.48    -0.205 NA
HETATM    9  C6    D T2017      12.247   8.782   5.238  1.00 69.36     0.163 A 
HETATM   10  NAV   D T2017      13.218   8.581   4.351  1.00 70.92    -0.250 NA
ENDROOT
BRANCH   1  11
HETATM   11  CAY   D T2017       8.514  10.828   2.934  1.00 71.68     0.018 A 
HETATM   12  CAK   D T2017       8.969  10.968   1.628  1.00 73.27     0.001 A 
HETATM   13  CAI   D T2017       8.140  11.525   0.660  1.00 74.78    -0.002 A 
HETATM   14  CAX   D T2017       6.858  11.941   0.998  1.00 77.32     0.011 A 
HETATM   15  CAJ   D T2017       6.404  11.800   2.304  1.00 74.40    -0.002 A 
HETATM   16  CAL   D T2017       7.231  11.243   3.272  1.00 72.43     0.001 A 
BRANCH  14  17
HETATM   17  CAS   D T2017       5.947  12.553  -0.068  1.00 81.79     0.277 C 
BRANCH  17  18
HETATM   18  NBG   D T2017       5.335  13.783   0.457  1.00 86.70     0.146 N 
HETATM   19  CAQ   D T2017       3.908  13.810   0.105  1.00 87.93     0.286 C 
HETATM   20  CAO   D T2017       3.756  13.787  -1.417  1.00 90.08     0.285 C 
HETATM   21  NBF   D T2017       4.429  14.961  -1.996  1.00 91.56     0.141 N 
HETATM   22  CAP   D T2017       5.855  14.929  -1.645  1.00 90.83     0.285 C 
HETATM   23  CAR   D T2017       6.008  14.954  -0.123  1.00 89.55     0.286 C 
BRANCH  21  24
HETATM   24  CAN   D T2017       3.819  16.186  -1.460  1.00 91.78     0.251 C 
HETATM   25  CAA   D T2017       4.192  17.374  -2.350  1.00 91.26     0.037 C 
ENDBRANCH  21  24
ENDBRANCH  17  18
ENDBRANCH  14  17
ENDBRANCH   1  11
BRANCH  10  26
HETATM   26  CBE   D T2017      14.612   8.467   4.801  1.00 72.13     0.127 C 
HETATM   27  CAB   D T2017      15.514   9.289   3.879  1.00 72.05     0.031 C 
BRANCH  26  28
HETATM   28  CAZ   D T2017      15.044   7.000   4.764  1.00 72.85    -0.000 A 
HETATM   29  CAG   D T2017      15.958   6.521   5.694  1.00 73.42    -0.002 A 
HETATM   30  CAD   D T2017      16.350   5.188   5.660  1.00 73.74    -0.000 A 
HETATM   31  CAC   D T2017      15.826   4.334   4.696  1.00 73.88    -0.000 A 
HETATM   32  CAE   D T2017      14.913   4.814   3.766  1.00 74.18    -0.000 A 
HETATM   33  CAH   D T2017      14.520   6.147   3.799  1.00 74.00    -0.002 A 
ENDBRANCH  26  28
ENDBRANCH  10  26
TORSDOF 6
ENDMDL
