MODEL 1
REMARK VINA RESULT:    -8.493      0.000      0.000
REMARK INTER + INTRA:         -12.878
REMARK INTER:                 -11.968
REMARK INTRA:                  -0.909
REMARK UNBOUND:                -0.909
REMARK  7 active torsions:
REMARK  status: ('A' for Active; 'I' for Inactive)
REMARK    1  A    between atoms: NBB_6  and  CBA_7 
REMARK    2  A    between atoms: CAS_9  and  OAT_10 
REMARK    3  A    between atoms: CAL_14  and  NAH_15 
REMARK    4  A    between atoms: NAH_15  and  C2_16 
REMARK    5  A    between atoms: C4_22  and  NAE_23 
REMARK    6  A    between atoms: NAE_23  and  CAJ_24 
REMARK    7  A    between atoms: CAP_29  and  CAO_30 
REMARK       I    between atoms: CAO_30  and  NAN_32 
ROOT
HETATM    1  C2    D T1686      10.074   2.557  -1.897  1.00 17.61     0.752 A 
HETATM    2  N3    D T1686       9.985   2.633  -3.232  1.00 18.51    -0.039 NA
HETATM    3  N1    D T1686       9.030   2.925  -1.160  1.00 16.90    -0.057 NA
HETATM    4  C6    D T1686       7.913   3.365  -1.730  1.00 16.74     0.133 A 
HETATM    5  C5    D T1686       7.784   3.438  -3.106  1.00 17.83     0.114 A 
HETATM    6 CL5    D T1686       6.298   4.001  -3.822  1.00 20.30    -0.077 Cl
HETATM    7  C4    D T1686       8.866   3.029  -3.889  1.00 18.56     0.193 A 
ENDROOT
BRANCH   1   8
HETATM    8  NAH   D T1686      11.181   2.107  -1.277  1.00 18.72    -0.057 NA
BRANCH   8   9
HETATM    9  CAL   D T1686      11.384   0.855  -0.830  1.00 18.22     0.122 A 
HETATM   10  CAS   D T1686      11.047   0.597   0.494  1.00 20.44     0.114 A 
HETATM   11  CAY   D T1686      11.237  -0.692   1.032  1.00 18.94     0.043 A 
HETATM   12  CBA   D T1686      11.741  -1.740   0.253  1.00 20.47     0.058 A 
HETATM   13  CAX   D T1686      12.091  -1.475  -1.081  1.00 17.39     0.019 A 
HETATM   14  CAR   D T1686      11.895  -0.195  -1.613  1.00 18.28     0.023 A 
BRANCH  10  15
HETATM   15  OAT   D T1686      10.551   1.641   1.210  1.00 18.42    -0.327 OA
HETATM   16  CAU   D T1686      11.407   1.965   2.317  1.00 20.67     0.181 C 
ENDBRANCH  10  15
BRANCH  12  17
HETATM   17  NBB   D T1686      11.929  -3.062   0.788  1.00 22.32    -0.343 N 
HETATM   18  CBC   D T1686      12.233  -3.255   2.225  1.00 27.64     0.134 C 
HETATM   19  CBE   D T1686      13.062  -4.532   2.476  1.00 28.37     0.167 C 
HETATM   20  OBG   D T1686      12.472  -5.643   1.810  1.00 28.23    -0.350 OA
HETATM   21  CBF   D T1686      12.562  -5.485   0.397  1.00 27.59     0.167 C 
HETATM   22  CBD   D T1686      11.838  -4.234  -0.115  1.00 25.14     0.134 C 
ENDBRANCH  12  17
ENDBRANCH   8   9
ENDBRANCH   1   8
BRANCH   7  23
HETATM   23  NAE   D T1686       8.779   3.054  -5.240  1.00 16.74    -0.225 NA
BRANCH  23  24
HETATM   24  CAJ   D T1686       8.061   2.232  -6.040  1.00 21.60     0.088 A 
HETATM   25  CAQ   D T1686       8.151   0.837  -5.850  1.00 19.37     0.019 A 
HETATM   26  CAW   D T1686       7.444  -0.054  -6.637  1.00 21.30     0.002 A 
HETATM   27  CAZ   D T1686       6.656   0.432  -7.680  1.00 22.64     0.000 A 
HETATM   28  CAV   D T1686       6.568   1.805  -7.894  1.00 23.23     0.006 A 
HETATM   29  CAP   D T1686       7.255   2.711  -7.087  1.00 20.25     0.075 A 
BRANCH  29  30
HETATM   30  CAO   D T1686       7.094   4.205  -7.395  1.00 17.59     0.276 C 
HETATM   31  OAI   D T1686       7.968   4.796  -8.012  1.00 15.81    -0.266 OA
HETATM   32  NAN   D T1686       5.983   4.780  -6.926  1.00 14.44    -0.232 NA
HETATM   33  CAM   D T1686       5.755   6.200  -7.227  1.00 17.53     0.155 C 
ENDBRANCH  29  30
ENDBRANCH  23  24
ENDBRANCH   7  23
TORSDOF 7
ENDMDL
MODEL 2
REMARK VINA RESULT:    -8.387      2.091      2.802
REMARK INTER + INTRA:         -12.728
REMARK INTER:                 -12.102
REMARK INTRA:                  -0.626
REMARK UNBOUND:                -0.909
REMARK  7 active torsions:
REMARK  status: ('A' for Active; 'I' for Inactive)
REMARK    1  A    between atoms: NBB_6  and  CBA_7 
REMARK    2  A    between atoms: CAS_9  and  OAT_10 
REMARK    3  A    between atoms: CAL_14  and  NAH_15 
REMARK    4  A    between atoms: NAH_15  and  C2_16 
REMARK    5  A    between atoms: C4_22  and  NAE_23 
REMARK    6  A    between atoms: NAE_23  and  CAJ_24 
REMARK    7  A    between atoms: CAP_29  and  CAO_30 
REMARK       I    between atoms: CAO_30  and  NAN_32 
ROOT
HETATM    1  C2    D T1686       9.160   4.343  -3.011  1.00 17.61     0.752 A 
HETATM    2  N3    D T1686       8.209   3.668  -3.671  1.00 18.51    -0.039 NA
HETATM    3  N1    D T1686       9.912   5.214  -3.677  1.00 16.90    -0.057 NA
HETATM    4  C6    D T1686       9.731   5.417  -4.978  1.00 16.74     0.133 A 
HETATM    5  C5    D T1686       8.746   4.748  -5.684  1.00 17.83     0.114 A 
HETATM    6 CL5    D T1686       8.523   5.052  -7.386  1.00 20.30    -0.077 Cl
HETATM    7  C4    D T1686       7.934   3.851  -4.987  1.00 18.56     0.193 A 
ENDROOT
BRANCH   1   8
HETATM    8  NAH   D T1686       9.370   4.178  -1.691  1.00 18.72    -0.057 NA
BRANCH   8   9
HETATM    9  CAL   D T1686       9.854   3.071  -1.100  1.00 18.22     0.122 A 
HETATM   10  CAS   D T1686       9.463   2.838   0.214  1.00 20.44     0.114 A 
HETATM   11  CAY   D T1686       9.935   1.699   0.898  1.00 18.94     0.043 A 
HETATM   12  CBA   D T1686      10.780   0.773   0.277  1.00 20.47     0.058 A 
HETATM   13  CAX   D T1686      11.183   1.016  -1.047  1.00 17.39     0.019 A 
HETATM   14  CAR   D T1686      10.707   2.144  -1.725  1.00 18.28     0.023 A 
BRANCH  10  15
HETATM   15  OAT   D T1686       8.633   3.757   0.774  1.00 18.42    -0.327 OA
HETATM   16  CAU   D T1686       9.332   4.577   1.724  1.00 20.67     0.181 C 
ENDBRANCH  10  15
BRANCH  12  17
HETATM   17  NBB   D T1686      11.259  -0.398   0.961  1.00 22.32    -0.343 N 
HETATM   18  CBC   D T1686      11.959  -1.470   0.216  1.00 27.64     0.134 C 
HETATM   19  CBE   D T1686      11.769  -2.853   0.874  1.00 28.37     0.167 C 
HETATM   20  OBG   D T1686      12.049  -2.779   2.268  1.00 28.23    -0.350 OA
HETATM   21  CBF   D T1686      11.075  -1.980   2.933  1.00 27.59     0.167 C 
HETATM   22  CBD   D T1686      11.030  -0.537   2.419  1.00 25.14     0.134 C 
ENDBRANCH  12  17
ENDBRANCH   8   9
ENDBRANCH   1   8
BRANCH   7  23
HETATM   23  NAE   D T1686       6.938   3.193  -5.626  1.00 16.74    -0.225 NA
BRANCH  23  24
HETATM   24  CAJ   D T1686       7.043   2.106  -6.427  1.00 21.60     0.088 A 
HETATM   25  CAQ   D T1686       7.788   0.994  -5.982  1.00 19.37     0.019 A 
HETATM   26  CAW   D T1686       7.934  -0.144  -6.755  1.00 21.30     0.002 A 
HETATM   27  CAZ   D T1686       7.371  -0.180  -8.030  1.00 22.64     0.000 A 
HETATM   28  CAV   D T1686       6.647   0.916  -8.494  1.00 23.23     0.006 A 
HETATM   29  CAP   D T1686       6.471   2.054  -7.710  1.00 20.25     0.075 A 
BRANCH  29  30
HETATM   30  CAO   D T1686       5.653   3.209  -8.301  1.00 17.59     0.276 C 
HETATM   31  OAI   D T1686       5.456   4.217  -7.638  1.00 15.81    -0.266 OA
HETATM   32  NAN   D T1686       5.175   3.012  -9.534  1.00 14.44    -0.232 NA
HETATM   33  CAM   D T1686       4.420   4.102 -10.168  1.00 17.53     0.155 C 
ENDBRANCH  29  30
ENDBRANCH  23  24
ENDBRANCH   7  23
TORSDOF 7
ENDMDL
MODEL 3
REMARK VINA RESULT:    -8.381      2.254      3.509
REMARK INTER + INTRA:         -12.720
REMARK INTER:                 -11.981
REMARK INTRA:                  -0.739
REMARK UNBOUND:                -0.909
REMARK  7 active torsions:
REMARK  status: ('A' for Active; 'I' for Inactive)
REMARK    1  A    between atoms: NBB_6  and  CBA_7 
REMARK    2  A    between atoms: CAS_9  and  OAT_10 
REMARK    3  A    between atoms: CAL_14  and  NAH_15 
REMARK    4  A    between atoms: NAH_15  and  C2_16 
REMARK    5  A    between atoms: C4_22  and  NAE_23 
REMARK    6  A    between atoms: NAE_23  and  CAJ_24 
REMARK    7  A    between atoms: CAP_29  and  CAO_30 
REMARK       I    between atoms: CAO_30  and  NAN_32 
ROOT
HETATM    1  C2    D T1686       9.193   4.327  -3.023  1.00 17.61     0.752 A 
HETATM    2  N3    D T1686       8.175   3.643  -3.564  1.00 18.51    -0.039 NA
HETATM    3  N1    D T1686       9.908   5.137  -3.799  1.00 16.90    -0.057 NA
HETATM    4  C6    D T1686       9.628   5.269  -5.090  1.00 16.74     0.133 A 
HETATM    5  C5    D T1686       8.573   4.590  -5.674  1.00 17.83     0.114 A 
HETATM    6 CL5    D T1686       8.219   4.801  -7.368  1.00 20.30    -0.077 Cl
HETATM    7  C4    D T1686       7.799   3.757  -4.863  1.00 18.56     0.193 A 
ENDROOT
BRANCH   1   8
HETATM    8  NAH   D T1686       9.506   4.233  -1.717  1.00 18.72    -0.057 NA
BRANCH   8   9
HETATM    9  CAL   D T1686       9.952   3.131  -1.089  1.00 18.22     0.122 A 
HETATM   10  CAS   D T1686       9.456   2.890   0.187  1.00 20.44     0.114 A 
HETATM   11  CAY   D T1686       9.883   1.755   0.907  1.00 18.94     0.043 A 
HETATM   12  CBA   D T1686      10.788   0.841   0.358  1.00 20.47     0.058 A 
HETATM   13  CAX   D T1686      11.298   1.092  -0.927  1.00 17.39     0.019 A 
HETATM   14  CAR   D T1686      10.866   2.216  -1.642  1.00 18.28     0.023 A 
BRANCH  10  15
HETATM   15  OAT   D T1686       8.570   3.798   0.677  1.00 18.42    -0.327 OA
HETATM   16  CAU   D T1686       9.172   4.611   1.697  1.00 20.67     0.181 C 
ENDBRANCH  10  15
BRANCH  12  17
HETATM   17  NBB   D T1686      11.223  -0.325   1.078  1.00 22.32    -0.343 N 
HETATM   18  CBC   D T1686      11.845  -1.463   0.362  1.00 27.64     0.134 C 
HETATM   19  CBE   D T1686      11.600  -2.806   1.082  1.00 28.37     0.167 C 
HETATM   20  OBG   D T1686      11.921  -2.691   2.464  1.00 28.23    -0.350 OA
HETATM   21  CBF   D T1686      11.009  -1.814   3.119  1.00 27.59     0.167 C 
HETATM   22  CBD   D T1686      11.027  -0.392   2.546  1.00 25.14     0.134 C 
ENDBRANCH  12  17
ENDBRANCH   8   9
ENDBRANCH   1   8
BRANCH   7  23
HETATM   23  NAE   D T1686       6.739   3.093  -5.379  1.00 16.74    -0.225 NA
BRANCH  23  24
HETATM   24  CAJ   D T1686       6.720   2.269  -6.453  1.00 21.60     0.088 A 
HETATM   25  CAQ   D T1686       5.945   2.622  -7.578  1.00 19.37     0.019 A 
HETATM   26  CAW   D T1686       5.883   1.821  -8.703  1.00 21.30     0.002 A 
HETATM   27  CAZ   D T1686       6.568   0.605  -8.715  1.00 22.64     0.000 A 
HETATM   28  CAV   D T1686       7.325   0.232  -7.607  1.00 23.23     0.006 A 
HETATM   29  CAP   D T1686       7.415   1.047  -6.481  1.00 20.25     0.075 A 
BRANCH  29  30
HETATM   30  CAO   D T1686       8.277   0.555  -5.311  1.00 17.59     0.276 C 
HETATM   31  OAI   D T1686       7.744   0.062  -4.328  1.00 15.81    -0.266 OA
HETATM   32  NAN   D T1686       9.595   0.733  -5.444  1.00 14.44    -0.232 NA
HETATM   33  CAM   D T1686      10.473   0.243  -4.373  1.00 17.53     0.155 C 
ENDBRANCH  29  30
ENDBRANCH  23  24
ENDBRANCH   7  23
TORSDOF 7
ENDMDL
MODEL 4
REMARK VINA RESULT:    -8.216      2.641      9.800
REMARK INTER + INTRA:         -12.487
REMARK INTER:                 -11.408
REMARK INTRA:                  -1.079
REMARK UNBOUND:                -0.909
REMARK  7 active torsions:
REMARK  status: ('A' for Active; 'I' for Inactive)
REMARK    1  A    between atoms: NBB_6  and  CBA_7 
REMARK    2  A    between atoms: CAS_9  and  OAT_10 
REMARK    3  A    between atoms: CAL_14  and  NAH_15 
REMARK    4  A    between atoms: NAH_15  and  C2_16 
REMARK    5  A    between atoms: C4_22  and  NAE_23 
REMARK    6  A    between atoms: NAE_23  and  CAJ_24 
REMARK    7  A    between atoms: CAP_29  and  CAO_30 
REMARK       I    between atoms: CAO_30  and  NAN_32 
ROOT
HETATM    1  C2    D T1686      10.088   1.235  -3.576  1.00 17.61     0.752 A 
HETATM    2  N3    D T1686      10.696   0.788  -2.469  1.00 18.51    -0.039 NA
HETATM    3  N1    D T1686      10.595   0.915  -4.763  1.00 16.90    -0.057 NA
HETATM    4  C6    D T1686      11.689   0.167  -4.859  1.00 16.74     0.133 A 
HETATM    5  C5    D T1686      12.330  -0.324  -3.734  1.00 17.83     0.114 A 
HETATM    6 CL5    D T1686      13.752  -1.319  -3.895  1.00 20.30    -0.077 Cl
HETATM    7  C4    D T1686      11.790  -0.015  -2.484  1.00 18.56     0.193 A 
ENDROOT
BRANCH   1   8
HETATM    8  NAH   D T1686       8.971   1.985  -3.527  1.00 18.72    -0.057 NA
BRANCH   8   9
HETATM    9  CAL   D T1686       8.229   2.368  -4.582  1.00 18.22     0.122 A 
HETATM   10  CAS   D T1686       8.158   3.732  -4.840  1.00 20.44     0.114 A 
HETATM   11  CAY   D T1686       7.394   4.205  -5.927  1.00 18.94     0.043 A 
HETATM   12  CBA   D T1686       6.714   3.327  -6.777  1.00 20.47     0.058 A 
HETATM   13  CAX   D T1686       6.777   1.950  -6.508  1.00 17.39     0.019 A 
HETATM   14  CAR   D T1686       7.542   1.483  -5.432  1.00 18.28     0.023 A 
BRANCH  10  15
HETATM   15  OAT   D T1686       8.843   4.548  -3.995  1.00 18.42    -0.327 OA
HETATM   16  CAU   D T1686       9.892   5.246  -4.685  1.00 20.67     0.181 C 
ENDBRANCH  10  15
BRANCH  12  17
HETATM   17  NBB   D T1686       5.940   3.797  -7.895  1.00 22.32    -0.343 N 
HETATM   18  CBC   D T1686       5.372   5.165  -7.893  1.00 27.64     0.134 C 
HETATM   19  CBE   D T1686       4.078   5.258  -8.728  1.00 28.37     0.167 C 
HETATM   20  OBG   D T1686       4.273   4.667 -10.009  1.00 28.23    -0.350 OA
HETATM   21  CBF   D T1686       4.467   3.260  -9.887  1.00 27.59     0.167 C 
HETATM   22  CBD   D T1686       5.694   2.894  -9.045  1.00 25.14     0.134 C 
ENDBRANCH  12  17
ENDBRANCH   8   9
ENDBRANCH   1   8
BRANCH   7  23
HETATM   23  NAE   D T1686      12.363  -0.494  -1.355  1.00 16.74    -0.225 NA
BRANCH  23  24
HETATM   24  CAJ   D T1686      11.987  -1.573  -0.628  1.00 21.60     0.088 A 
HETATM   25  CAQ   D T1686      12.113  -2.860  -1.192  1.00 19.37     0.019 A 
HETATM   26  CAW   D T1686      11.743  -3.999  -0.501  1.00 21.30     0.002 A 
HETATM   27  CAZ   D T1686      11.185  -3.876   0.771  1.00 22.64     0.000 A 
HETATM   28  CAV   D T1686      11.037  -2.612   1.338  1.00 23.23     0.006 A 
HETATM   29  CAP   D T1686      11.433  -1.461   0.660  1.00 20.25     0.075 A 
BRANCH  29  30
HETATM   30  CAO   D T1686      11.236  -0.113   1.364  1.00 17.59     0.276 C 
HETATM   31  OAI   D T1686      10.314   0.618   1.033  1.00 15.81    -0.266 OA
HETATM   32  NAN   D T1686      12.135   0.188   2.306  1.00 14.44    -0.232 NA
HETATM   33  CAM   D T1686      11.972   1.449   3.044  1.00 17.53     0.155 C 
ENDBRANCH  29  30
ENDBRANCH  23  24
ENDBRANCH   7  23
TORSDOF 7
ENDMDL
MODEL 5
REMARK VINA RESULT:    -8.208      4.009      6.836
REMARK INTER + INTRA:         -12.477
REMARK INTER:                 -11.389
REMARK INTRA:                  -1.088
REMARK UNBOUND:                -0.909
REMARK  7 active torsions:
REMARK  status: ('A' for Active; 'I' for Inactive)
REMARK    1  A    between atoms: NBB_6  and  CBA_7 
REMARK    2  A    between atoms: CAS_9  and  OAT_10 
REMARK    3  A    between atoms: CAL_14  and  NAH_15 
REMARK    4  A    between atoms: NAH_15  and  C2_16 
REMARK    5  A    between atoms: C4_22  and  NAE_23 
REMARK    6  A    between atoms: NAE_23  and  CAJ_24 
REMARK    7  A    between atoms: CAP_29  and  CAO_30 
REMARK       I    between atoms: CAO_30  and  NAN_32 
ROOT
HETATM    1  C2    D T1686       7.847   2.908  -2.454  1.00 17.61     0.752 A 
HETATM    2  N3    D T1686       7.049   2.992  -3.526  1.00 18.51    -0.039 NA
HETATM    3  N1    D T1686       8.855   2.040  -2.467  1.00 16.90    -0.057 NA
HETATM    4  C6    D T1686       9.072   1.263  -3.523  1.00 16.74     0.133 A 
HETATM    5  C5    D T1686       8.276   1.339  -4.653  1.00 17.83     0.114 A 
HETATM    6 CL5    D T1686       8.601   0.319  -6.029  1.00 20.30    -0.077 Cl
HETATM    7  C4    D T1686       7.231   2.265  -4.658  1.00 18.56     0.193 A 
ENDROOT
BRANCH   1   8
HETATM    8  NAH   D T1686       7.672   3.682  -1.367  1.00 18.72    -0.057 NA
BRANCH   8   9
HETATM    9  CAL   D T1686       8.530   4.613  -0.912  1.00 18.22     0.122 A 
HETATM   10  CAS   D T1686       9.193   4.329   0.277  1.00 20.44     0.114 A 
HETATM   11  CAY   D T1686      10.104   5.261   0.816  1.00 18.94     0.043 A 
HETATM   12  CBA   D T1686      10.380   6.470   0.167  1.00 20.47     0.058 A 
HETATM   13  CAX   D T1686       9.701   6.759  -1.028  1.00 17.39     0.019 A 
HETATM   14  CAR   D T1686       8.802   5.829  -1.563  1.00 18.28     0.023 A 
BRANCH  10  15
HETATM   15  OAT   D T1686       8.903   3.139   0.867  1.00 18.42    -0.327 OA
HETATM   16  CAU   D T1686      10.089   2.350   1.053  1.00 20.67     0.181 C 
ENDBRANCH  10  15
BRANCH  12  17
HETATM   17  NBB   D T1686      11.315   7.423   0.701  1.00 22.32    -0.343 N 
HETATM   18  CBC   D T1686      10.889   8.811   0.993  1.00 27.64     0.134 C 
HETATM   19  CBE   D T1686      12.053   9.815   0.866  1.00 28.37     0.167 C 
HETATM   20  OBG   D T1686      13.189   9.349   1.587  1.00 28.23    -0.350 OA
HETATM   21  CBF   D T1686      13.720   8.175   0.979  1.00 27.59     0.167 C 
HETATM   22  CBD   D T1686      12.720   7.014   0.940  1.00 25.14     0.134 C 
ENDBRANCH  12  17
ENDBRANCH   8   9
ENDBRANCH   1   8
BRANCH   7  23
HETATM   23  NAE   D T1686       6.441   2.398  -5.749  1.00 16.74    -0.225 NA
BRANCH  23  24
HETATM   24  CAJ   D T1686       6.525   3.334  -6.724  1.00 21.60     0.088 A 
HETATM   25  CAQ   D T1686       6.824   4.667  -6.374  1.00 19.37     0.019 A 
HETATM   26  CAW   D T1686       6.921   5.668  -7.324  1.00 21.30     0.002 A 
HETATM   27  CAZ   D T1686       6.671   5.365  -8.662  1.00 22.64     0.000 A 
HETATM   28  CAV   D T1686       6.358   4.057  -9.025  1.00 23.23     0.006 A 
HETATM   29  CAP   D T1686       6.286   3.038  -8.078  1.00 20.25     0.075 A 
BRANCH  29  30
HETATM   30  CAO   D T1686       5.940   1.628  -8.571  1.00 17.59     0.276 C 
HETATM   31  OAI   D T1686       6.791   0.750  -8.551  1.00 15.81    -0.266 OA
HETATM   32  NAN   D T1686       4.695   1.461  -9.028  1.00 14.44    -0.232 NA
HETATM   33  CAM   D T1686       4.294   0.119  -9.475  1.00 17.53     0.155 C 
ENDBRANCH  29  30
ENDBRANCH  23  24
ENDBRANCH   7  23
TORSDOF 7
ENDMDL
MODEL 6
REMARK VINA RESULT:    -8.143      4.054      6.980
REMARK INTER + INTRA:         -12.384
REMARK INTER:                 -11.258
REMARK INTRA:                  -1.126
REMARK UNBOUND:                -0.909
REMARK  7 active torsions:
REMARK  status: ('A' for Active; 'I' for Inactive)
REMARK    1  A    between atoms: NBB_6  and  CBA_7 
REMARK    2  A    between atoms: CAS_9  and  OAT_10 
REMARK    3  A    between atoms: CAL_14  and  NAH_15 
REMARK    4  A    between atoms: NAH_15  and  C2_16 
REMARK    5  A    between atoms: C4_22  and  NAE_23 
REMARK    6  A    between atoms: NAE_23  and  CAJ_24 
REMARK    7  A    between atoms: CAP_29  and  CAO_30 
REMARK       I    between atoms: CAO_30  and  NAN_32 
ROOT
HETATM    1  C2    D T1686       8.567   1.348  -3.564  1.00 17.61     0.752 A 
HETATM    2  N3    D T1686       7.443   1.594  -4.250  1.00 18.51    -0.039 NA
HETATM    3  N1    D T1686       9.525   0.623  -4.135  1.00 16.90    -0.057 NA
HETATM    4  C6    D T1686       9.377   0.144  -5.366  1.00 16.74     0.133 A 
HETATM    5  C5    D T1686       8.235   0.397  -6.107  1.00 17.83     0.114 A 
HETATM    6 CL5    D T1686       8.080  -0.229  -7.726  1.00 20.30    -0.077 Cl
HETATM    7  C4    D T1686       7.235   1.179  -5.525  1.00 18.56     0.193 A 
ENDROOT
BRANCH   1   8
HETATM    8  NAH   D T1686       8.766   1.821  -2.319  1.00 18.72    -0.057 NA
BRANCH   8   9
HETATM    9  CAL   D T1686       8.855   3.117  -1.971  1.00 18.22     0.122 A 
HETATM   10  CAS   D T1686      10.131   3.628  -1.769  1.00 20.44     0.114 A 
HETATM   11  CAY   D T1686      10.300   4.978  -1.397  1.00 18.94     0.043 A 
HETATM   12  CBA   D T1686       9.204   5.835  -1.246  1.00 20.47     0.058 A 
HETATM   13  CAX   D T1686       7.914   5.314  -1.439  1.00 17.39     0.019 A 
HETATM   14  CAR   D T1686       7.751   3.975  -1.815  1.00 18.28     0.023 A 
BRANCH  10  15
HETATM   15  OAT   D T1686      11.167   2.764  -1.938  1.00 18.42    -0.327 OA
HETATM   16  CAU   D T1686      11.989   2.703  -0.761  1.00 20.67     0.181 C 
ENDBRANCH  10  15
BRANCH  12  17
HETATM   17  NBB   D T1686       9.364   7.216  -0.877  1.00 22.32    -0.343 N 
HETATM   18  CBC   D T1686       9.283   7.629   0.543  1.00 27.64     0.134 C 
HETATM   19  CBE   D T1686       8.777   9.079   0.698  1.00 28.37     0.167 C 
HETATM   20  OBG   D T1686       9.503   9.950  -0.163  1.00 28.23    -0.350 OA
HETATM   21  CBF   D T1686       9.212   9.662  -1.528  1.00 27.59     0.167 C 
HETATM   22  CBD   D T1686       9.590   8.232  -1.933  1.00 25.14     0.134 C 
ENDBRANCH  12  17
ENDBRANCH   8   9
ENDBRANCH   1   8
BRANCH   7  23
HETATM   23  NAE   D T1686       6.111   1.478  -6.218  1.00 16.74    -0.225 NA
BRANCH  23  24
HETATM   24  CAJ   D T1686       5.998   2.263  -7.315  1.00 21.60     0.088 A 
HETATM   25  CAQ   D T1686       5.380   1.744  -8.472  1.00 19.37     0.019 A 
HETATM   26  CAW   D T1686       5.238   2.496  -9.624  1.00 21.30     0.002 A 
HETATM   27  CAZ   D T1686       5.761   3.788  -9.665  1.00 22.64     0.000 A 
HETATM   28  CAV   D T1686       6.390   4.312  -8.538  1.00 23.23     0.006 A 
HETATM   29  CAP   D T1686       6.512   3.571  -7.365  1.00 20.25     0.075 A 
BRANCH  29  30
HETATM   30  CAO   D T1686       7.216   4.231  -6.173  1.00 17.59     0.276 C 
HETATM   31  OAI   D T1686       6.561   4.616  -5.215  1.00 15.81    -0.266 OA
HETATM   32  NAN   D T1686       8.541   4.368  -6.283  1.00 14.44    -0.232 NA
HETATM   33  CAM   D T1686       9.275   4.957  -5.153  1.00 17.53     0.155 C 
ENDBRANCH  29  30
ENDBRANCH  23  24
ENDBRANCH   7  23
TORSDOF 7
ENDMDL
MODEL 7
REMARK VINA RESULT:    -8.035      2.152      2.665
REMARK INTER + INTRA:         -12.232
REMARK INTER:                 -10.805
REMARK INTRA:                  -1.428
REMARK UNBOUND:                -0.909
REMARK  7 active torsions:
REMARK  status: ('A' for Active; 'I' for Inactive)
REMARK    1  A    between atoms: NBB_6  and  CBA_7 
REMARK    2  A    between atoms: CAS_9  and  OAT_10 
REMARK    3  A    between atoms: CAL_14  and  NAH_15 
REMARK    4  A    between atoms: NAH_15  and  C2_16 
REMARK    5  A    between atoms: C4_22  and  NAE_23 
REMARK    6  A    between atoms: NAE_23  and  CAJ_24 
REMARK    7  A    between atoms: CAP_29  and  CAO_30 
REMARK       I    between atoms: CAO_30  and  NAN_32 
ROOT
HETATM    1  C2    D T1686       9.499   4.526  -0.804  1.00 17.61     0.752 A 
HETATM    2  N3    D T1686       9.708   3.797  -1.908  1.00 18.51    -0.039 NA
HETATM    3  N1    D T1686       9.438   5.851  -0.909  1.00 16.90    -0.057 NA
HETATM    4  C6    D T1686       9.583   6.449  -2.086  1.00 16.74     0.133 A 
HETATM    5  C5    D T1686       9.782   5.722  -3.247  1.00 17.83     0.114 A 
HETATM    6 CL5    D T1686       9.948   6.537  -4.779  1.00 20.30    -0.077 Cl
HETATM    7  C4    D T1686       9.821   4.330  -3.150  1.00 18.56     0.193 A 
ENDROOT
BRANCH   1   8
HETATM    8  NAH   D T1686       9.336   3.963   0.408  1.00 18.72    -0.057 NA
BRANCH   8   9
HETATM    9  CAL   D T1686       9.711   2.719   0.758  1.00 18.22     0.122 A 
HETATM   10  CAS   D T1686      11.017   2.558   1.205  1.00 20.44     0.114 A 
HETATM   11  CAY   D T1686      11.481   1.282   1.585  1.00 18.94     0.043 A 
HETATM   12  CBA   D T1686      10.644   0.161   1.545  1.00 20.47     0.058 A 
HETATM   13  CAX   D T1686       9.328   0.323   1.082  1.00 17.39     0.019 A 
HETATM   14  CAR   D T1686       8.869   1.593   0.713  1.00 18.28     0.023 A 
BRANCH  10  15
HETATM   15  OAT   D T1686      11.791   3.676   1.239  1.00 18.42    -0.327 OA
HETATM   16  CAU   D T1686      12.986   3.503   0.460  1.00 20.67     0.181 C 
ENDBRANCH  10  15
BRANCH  12  17
HETATM   17  NBB   D T1686      11.102  -1.144   1.940  1.00 22.32    -0.343 N 
HETATM   18  CBC   D T1686      12.363  -1.299   2.702  1.00 27.64     0.134 C 
HETATM   19  CBE   D T1686      13.041  -2.659   2.432  1.00 28.37     0.167 C 
HETATM   20  OBG   D T1686      12.098  -3.716   2.568  1.00 28.23    -0.350 OA
HETATM   21  CBF   D T1686      11.115  -3.647   1.538  1.00 27.59     0.167 C 
HETATM   22  CBD   D T1686      10.313  -2.341   1.561  1.00 25.14     0.134 C 
ENDBRANCH  12  17
ENDBRANCH   8   9
ENDBRANCH   1   8
BRANCH   7  23
HETATM   23  NAE   D T1686       9.986   3.572  -4.261  1.00 16.74    -0.225 NA
BRANCH  23  24
HETATM   24  CAJ   D T1686       9.313   2.448  -4.603  1.00 21.60     0.088 A 
HETATM   25  CAQ   D T1686       9.867   1.190  -4.280  1.00 19.37     0.019 A 
HETATM   26  CAW   D T1686       9.230   0.007  -4.606  1.00 21.30     0.002 A 
HETATM   27  CAZ   D T1686       8.030   0.050  -5.315  1.00 22.64     0.000 A 
HETATM   28  CAV   D T1686       7.476   1.282  -5.658  1.00 23.23     0.006 A 
HETATM   29  CAP   D T1686       8.098   2.479  -5.308  1.00 20.25     0.075 A 
BRANCH  29  30
HETATM   30  CAO   D T1686       7.412   3.787  -5.724  1.00 17.59     0.276 C 
HETATM   31  OAI   D T1686       6.512   4.246  -5.037  1.00 15.81    -0.266 OA
HETATM   32  NAN   D T1686       7.847   4.335  -6.862  1.00 14.44    -0.232 NA
HETATM   33  CAM   D T1686       7.256   5.612  -7.288  1.00 17.53     0.155 C 
ENDBRANCH  29  30
ENDBRANCH  23  24
ENDBRANCH   7  23
TORSDOF 7
ENDMDL
MODEL 8
REMARK VINA RESULT:    -8.007      4.750      9.736
REMARK INTER + INTRA:         -12.193
REMARK INTER:                 -11.020
REMARK INTRA:                  -1.173
REMARK UNBOUND:                -0.909
REMARK  7 active torsions:
REMARK  status: ('A' for Active; 'I' for Inactive)
REMARK    1  A    between atoms: NBB_6  and  CBA_7 
REMARK    2  A    between atoms: CAS_9  and  OAT_10 
REMARK    3  A    between atoms: CAL_14  and  NAH_15 
REMARK    4  A    between atoms: NAH_15  and  C2_16 
REMARK    5  A    between atoms: C4_22  and  NAE_23 
REMARK    6  A    between atoms: NAE_23  and  CAJ_24 
REMARK    7  A    between atoms: CAP_29  and  CAO_30 
REMARK       I    between atoms: CAO_30  and  NAN_32 
ROOT
HETATM    1  C2    D T1686       9.466   3.222  -2.573  1.00 17.61     0.752 A 
HETATM    2  N3    D T1686      10.293   4.233  -2.274  1.00 18.51    -0.039 NA
HETATM    3  N1    D T1686       8.626   2.779  -1.641  1.00 16.90    -0.057 NA
HETATM    4  C6    D T1686       8.604   3.323  -0.429  1.00 16.74     0.133 A 
HETATM    5  C5    D T1686       9.433   4.380  -0.095  1.00 17.83     0.114 A 
HETATM    6 CL5    D T1686       9.364   5.084   1.498  1.00 20.30    -0.077 Cl
HETATM    7  C4    D T1686      10.299   4.869  -1.076  1.00 18.56     0.193 A 
ENDROOT
BRANCH   1   8
HETATM    8  NAH   D T1686       9.446   2.648  -3.791  1.00 18.72    -0.057 NA
BRANCH   8   9
HETATM    9  CAL   D T1686       8.659   3.006  -4.821  1.00 18.22     0.122 A 
HETATM   10  CAS   D T1686       7.581   2.176  -5.107  1.00 20.44     0.114 A 
HETATM   11  CAY   D T1686       6.716   2.487  -6.177  1.00 18.94     0.043 A 
HETATM   12  CBA   D T1686       6.902   3.635  -6.955  1.00 20.47     0.058 A 
HETATM   13  CAX   D T1686       7.998   4.466  -6.672  1.00 17.39     0.019 A 
HETATM   14  CAR   D T1686       8.851   4.158  -5.605  1.00 18.28     0.023 A 
BRANCH  10  15
HETATM   15  OAT   D T1686       7.431   1.078  -4.319  1.00 18.42    -0.327 OA
HETATM   16  CAU   D T1686       7.597  -0.131  -5.076  1.00 20.67     0.181 C 
ENDBRANCH  10  15
BRANCH  12  17
HETATM   17  NBB   D T1686       6.021   3.968  -8.042  1.00 22.32    -0.343 N 
HETATM   18  CBC   D T1686       5.310   5.267  -8.062  1.00 27.64     0.134 C 
HETATM   19  CBE   D T1686       3.968   5.184  -8.819  1.00 28.37     0.167 C 
HETATM   20  OBG   D T1686       4.153   4.557 -10.084  1.00 28.23    -0.350 OA
HETATM   21  CBF   D T1686       4.504   3.186  -9.916  1.00 27.59     0.167 C 
HETATM   22  CBD   D T1686       5.809   2.991  -9.136  1.00 25.14     0.134 C 
ENDBRANCH  12  17
ENDBRANCH   8   9
ENDBRANCH   1   8
BRANCH   7  23
HETATM   23  NAE   D T1686      11.111   5.919  -0.808  1.00 16.74    -0.225 NA
BRANCH  23  24
HETATM   24  CAJ   D T1686      10.832   7.237  -0.944  1.00 21.60     0.088 A 
HETATM   25  CAQ   D T1686       9.530   7.629  -1.321  1.00 19.37     0.019 A 
HETATM   26  CAW   D T1686       9.186   8.959  -1.479  1.00 21.30     0.002 A 
HETATM   27  CAZ   D T1686      10.160   9.943  -1.309  1.00 22.64     0.000 A 
HETATM   28  CAV   D T1686      11.455   9.573  -0.954  1.00 23.23     0.006 A 
HETATM   29  CAP   D T1686      11.803   8.237  -0.765  1.00 20.25     0.075 A 
BRANCH  29  30
HETATM   30  CAO   D T1686      13.252   7.926  -0.370  1.00 17.59     0.276 C 
HETATM   31  OAI   D T1686      14.077   7.669  -1.235  1.00 15.81    -0.266 OA
HETATM   32  NAN   D T1686      13.512   7.933   0.942  1.00 14.44    -0.232 NA
HETATM   33  CAM   D T1686      14.894   7.683   1.377  1.00 17.53     0.155 C 
ENDBRANCH  29  30
ENDBRANCH  23  24
ENDBRANCH   7  23
TORSDOF 7
ENDMDL
MODEL 9
REMARK VINA RESULT:    -7.965      4.614      9.120
REMARK INTER + INTRA:         -12.134
REMARK INTER:                 -10.934
REMARK INTRA:                  -1.200
REMARK UNBOUND:                -0.909
REMARK  7 active torsions:
REMARK  status: ('A' for Active; 'I' for Inactive)
REMARK    1  A    between atoms: NBB_6  and  CBA_7 
REMARK    2  A    between atoms: CAS_9  and  OAT_10 
REMARK    3  A    between atoms: CAL_14  and  NAH_15 
REMARK    4  A    between atoms: NAH_15  and  C2_16 
REMARK    5  A    between atoms: C4_22  and  NAE_23 
REMARK    6  A    between atoms: NAE_23  and  CAJ_24 
REMARK    7  A    between atoms: CAP_29  and  CAO_30 
REMARK       I    between atoms: CAO_30  and  NAN_32 
ROOT
HETATM    1  C2    D T1686       8.999   3.766  -1.206  1.00 17.61     0.752 A 
HETATM    2  N3    D T1686       9.227   5.025  -1.604  1.00 18.51    -0.039 NA
HETATM    3  N1    D T1686       8.970   3.497   0.096  1.00 16.90    -0.057 NA
HETATM    4  C6    D T1686       9.166   4.456   0.995  1.00 16.74     0.133 A 
HETATM    5  C5    D T1686       9.386   5.769   0.616  1.00 17.83     0.114 A 
HETATM    6 CL5    D T1686       9.619   7.006   1.822  1.00 20.30    -0.077 Cl
HETATM    7  C4    D T1686       9.392   6.065  -0.749  1.00 18.56     0.193 A 
ENDROOT
BRANCH   1   8
HETATM    8  NAH   D T1686       8.785   2.765  -2.081  1.00 18.72    -0.057 NA
BRANCH   8   9
HETATM    9  CAL   D T1686       8.249   2.889  -3.308  1.00 18.22     0.122 A 
HETATM   10  CAS   D T1686       9.074   2.596  -4.388  1.00 20.44     0.114 A 
HETATM   11  CAY   D T1686       8.580   2.709  -5.704  1.00 18.94     0.043 A 
HETATM   12  CBA   D T1686       7.258   3.092  -5.957  1.00 20.47     0.058 A 
HETATM   13  CAX   D T1686       6.429   3.400  -4.865  1.00 17.39     0.019 A 
HETATM   14  CAR   D T1686       6.921   3.279  -3.560  1.00 18.28     0.023 A 
BRANCH  10  15
HETATM   15  OAT   D T1686      10.347   2.217  -4.096  1.00 18.42    -0.327 OA
HETATM   16  CAU   D T1686      10.609   0.881  -4.556  1.00 20.67     0.181 C 
ENDBRANCH  10  15
BRANCH  12  17
HETATM   17  NBB   D T1686       6.740   3.201  -7.294  1.00 22.32    -0.343 N 
HETATM   18  CBC   D T1686       6.548   4.530  -7.920  1.00 27.64     0.134 C 
HETATM   19  CBE   D T1686       5.406   4.523  -8.957  1.00 28.37     0.167 C 
HETATM   20  OBG   D T1686       5.560   3.429  -9.855  1.00 28.23    -0.350 OA
HETATM   21  CBF   D T1686       5.372   2.192  -9.174  1.00 27.59     0.167 C 
HETATM   22  CBD   D T1686       6.379   1.972  -8.039  1.00 25.14     0.134 C 
ENDBRANCH  12  17
ENDBRANCH   8   9
ENDBRANCH   1   8
BRANCH   7  23
HETATM   23  NAE   D T1686       9.575   7.339  -1.171  1.00 16.74    -0.225 NA
BRANCH  23  24
HETATM   24  CAJ   D T1686      10.711   8.074  -1.117  1.00 21.60     0.088 A 
HETATM   25  CAQ   D T1686      11.958   7.418  -1.185  1.00 19.37     0.019 A 
HETATM   26  CAW   D T1686      13.152   8.114  -1.133  1.00 21.30     0.002 A 
HETATM   27  CAZ   D T1686      13.130   9.498  -0.961  1.00 22.64     0.000 A 
HETATM   28  CAV   D T1686      11.908  10.161  -0.875  1.00 23.23     0.006 A 
HETATM   29  CAP   D T1686      10.700   9.470  -0.955  1.00 20.25     0.075 A 
BRANCH  29  30
HETATM   30  CAO   D T1686       9.404  10.285  -0.855  1.00 17.59     0.276 C 
HETATM   31  OAI   D T1686       8.871  10.449   0.233  1.00 15.81    -0.266 OA
HETATM   32  NAN   D T1686       8.919  10.750  -2.010  1.00 14.44    -0.232 NA
HETATM   33  CAM   D T1686       7.701  11.573  -1.970  1.00 17.53     0.155 C 
ENDBRANCH  29  30
ENDBRANCH  23  24
ENDBRANCH   7  23
TORSDOF 7
ENDMDL
