MODEL 1
REMARK VINA RESULT:    -7.688      0.000      0.000
REMARK INTER + INTRA:          -9.117
REMARK INTER:                  -8.587
REMARK INTRA:                  -0.530
REMARK UNBOUND:                -0.530
REMARK  2 active torsions:
REMARK  status: ('A' for Active; 'I' for Inactive)
REMARK    1  A    between atoms: C5_4  and  O7_13 
REMARK    2  A    between atoms: C8_10  and  O7_13 
ROOT
HETATM    1  O7    D T 705       6.801   1.076  -6.958  1.00 53.87    -0.304 OA
ENDROOT
BRANCH   1   2
HETATM    2  C5    D T 705       7.017   1.297  -8.270  1.00 53.80     0.125 A 
HETATM    3  C6    D T 705       8.296   1.914  -8.638  1.00 53.82     0.154 A 
HETATM    4  C1    D T 705       8.514   2.166  -9.977  1.00 52.44     0.041 A 
HETATM    5  O17   D T 705       9.148   2.203  -7.658  1.00 52.72    -0.188 OA
HETATM    6  C2    D T 705       7.536   1.803 -10.893  1.00 52.70     0.060 A 
HETATM    7  C3    D T 705       6.331   1.237 -10.539  1.00 52.61     0.014 A 
HETATM    8 CL14   D T 705       7.782   2.064 -12.633  1.00 53.97    -0.082 Cl
HETATM    9  C4    D T 705       6.055   0.982  -9.212  1.00 53.27     0.028 A 
ENDBRANCH   1   2
BRANCH   1  10
HETATM   10  C8    D T 705       5.901   1.836  -6.288  1.00 53.50     0.111 A 
HETATM   11  C9    D T 705       4.656   1.182  -5.847  1.00 52.76     0.081 A 
HETATM   12  C10   D T 705       3.736   1.923  -5.152  1.00 53.10     0.025 A 
HETATM   13 CL16   D T 705       4.322  -0.550  -6.163  1.00 54.87    -0.080 Cl
HETATM   14  C11   D T 705       3.980   3.259  -4.897  1.00 52.79     0.059 A 
HETATM   15  C12   D T 705       5.145   3.879  -5.325  1.00 53.52     0.013 A 
HETATM   16 CL15   D T 705       2.726   4.164  -3.988  1.00 52.95    -0.082 Cl
HETATM   17  C13   D T 705       6.123   3.184  -6.014  1.00 52.90     0.026 A 
ENDBRANCH   1  10
TORSDOF 2
ENDMDL
MODEL 2
REMARK VINA RESULT:    -7.648      1.534      6.065
REMARK INTER + INTRA:          -9.072
REMARK INTER:                  -8.526
REMARK INTRA:                  -0.546
REMARK UNBOUND:                -0.530
REMARK  2 active torsions:
REMARK  status: ('A' for Active; 'I' for Inactive)
REMARK    1  A    between atoms: C5_4  and  O7_13 
REMARK    2  A    between atoms: C8_10  and  O7_13 
ROOT
HETATM    1  O7    D T 705       6.801   1.123  -6.725  1.00 53.87    -0.304 OA
ENDROOT
BRANCH   1   2
HETATM    2  C5    D T 705       5.869   1.853  -6.079  1.00 53.80     0.125 A 
HETATM    3  C6    D T 705       4.722   1.125  -5.525  1.00 53.82     0.154 A 
HETATM    4  C1    D T 705       3.752   1.867  -4.885  1.00 52.44     0.041 A 
HETATM    5  O17   D T 705       4.688  -0.195  -5.693  1.00 52.72    -0.188 OA
HETATM    6  C2    D T 705       3.925   3.241  -4.777  1.00 52.70     0.060 A 
HETATM    7  C3    D T 705       4.997   3.920  -5.313  1.00 52.61     0.014 A 
HETATM    8 CL14   D T 705       2.729   4.241  -3.925  1.00 53.97    -0.082 Cl
HETATM    9  C4    D T 705       5.985   3.227  -5.980  1.00 53.27     0.028 A 
ENDBRANCH   1   2
BRANCH   1  10
HETATM   10  C8    D T 705       6.996   1.308  -8.053  1.00 53.50     0.111 A 
HETATM   11  C9    D T 705       8.252   1.959  -8.470  1.00 52.76     0.081 A 
HETATM   12  C10   D T 705       8.484   2.142  -9.808  1.00 53.10     0.025 A 
HETATM   13 CL16   D T 705       9.492   2.488  -7.289  1.00 54.87    -0.080 Cl
HETATM   14  C11   D T 705       7.540   1.736 -10.731  1.00 52.79     0.059 A 
HETATM   15  C12   D T 705       6.351   1.137 -10.339  1.00 53.52     0.013 A 
HETATM   16 CL15   D T 705       7.912   2.016 -12.464  1.00 52.95    -0.082 Cl
HETATM   17  C13   D T 705       6.063   0.906  -9.006  1.00 52.90     0.026 A 
ENDBRANCH   1  10
TORSDOF 2
ENDMDL
MODEL 3
REMARK VINA RESULT:    -7.469      1.285      5.884
REMARK INTER + INTRA:          -8.873
REMARK INTER:                  -8.523
REMARK INTRA:                  -0.349
REMARK UNBOUND:                -0.530
REMARK  2 active torsions:
REMARK  status: ('A' for Active; 'I' for Inactive)
REMARK    1  A    between atoms: C5_4  and  O7_13 
REMARK    2  A    between atoms: C8_10  and  O7_13 
ROOT
HETATM    1  O7    D T 705       5.974   0.691  -7.077  1.00 53.87    -0.304 OA
ENDROOT
BRANCH   1   2
HETATM    2  C5    D T 705       5.278   1.587  -6.350  1.00 53.80     0.125 A 
HETATM    3  C6    D T 705       4.168   1.069  -5.542  1.00 53.82     0.154 A 
HETATM    4  C1    D T 705       3.435   1.983  -4.814  1.00 52.44     0.041 A 
HETATM    5  O17   D T 705       3.935  -0.241  -5.581  1.00 52.72    -0.188 OA
HETATM    6  C2    D T 705       3.799   3.322  -4.864  1.00 52.70     0.060 A 
HETATM    7  C3    D T 705       4.833   3.804  -5.636  1.00 52.61     0.014 A 
HETATM    8 CL14   D T 705       2.917   4.536  -3.913  1.00 53.97    -0.082 Cl
HETATM    9  C4    D T 705       5.585   2.935  -6.398  1.00 53.27     0.028 A 
ENDBRANCH   1   2
BRANCH   1  10
HETATM   10  C8    D T 705       6.423   1.031  -8.310  1.00 53.50     0.111 A 
HETATM   11  C9    D T 705       5.460   0.965  -9.424  1.00 52.76     0.081 A 
HETATM   12  C10   D T 705       5.882   1.321 -10.678  1.00 53.10     0.025 A 
HETATM   13 CL16   D T 705       3.756   0.465  -9.186  1.00 54.87    -0.080 Cl
HETATM   14  C11   D T 705       7.192   1.712 -10.878  1.00 52.79     0.059 A 
HETATM   15  C12   D T 705       8.103   1.760  -9.832  1.00 53.52     0.013 A 
HETATM   16 CL15   D T 705       7.672   2.156 -12.549  1.00 52.95    -0.082 Cl
HETATM   17  C13   D T 705       7.737   1.433  -8.539  1.00 52.90     0.026 A 
ENDBRANCH   1  10
TORSDOF 2
ENDMDL
MODEL 4
REMARK VINA RESULT:    -7.275      2.315      6.064
REMARK INTER + INTRA:          -8.656
REMARK INTER:                  -8.124
REMARK INTRA:                  -0.532
REMARK UNBOUND:                -0.530
REMARK  2 active torsions:
REMARK  status: ('A' for Active; 'I' for Inactive)
REMARK    1  A    between atoms: C5_4  and  O7_13 
REMARK    2  A    between atoms: C8_10  and  O7_13 
ROOT
HETATM    1  O7    D T 705       6.648   3.525  -6.617  1.00 53.87    -0.304 OA
ENDROOT
BRANCH   1   2
HETATM    2  C5    D T 705       5.895   2.755  -5.807  1.00 53.80     0.125 A 
HETATM    3  C6    D T 705       4.633   3.330  -5.328  1.00 53.82     0.154 A 
HETATM    4  C1    D T 705       3.869   2.558  -4.479  1.00 52.44     0.041 A 
HETATM    5  O17   D T 705       4.322   4.559  -5.731  1.00 52.72    -0.188 OA
HETATM    6  C2    D T 705       4.316   1.285  -4.149  1.00 52.70     0.060 A 
HETATM    7  C3    D T 705       5.509   0.756  -4.591  1.00 52.61     0.014 A 
HETATM    8 CL14   D T 705       3.351   0.230  -3.094  1.00 53.97    -0.082 Cl
HETATM    9  C4    D T 705       6.320   1.495  -5.426  1.00 53.27     0.028 A 
ENDBRANCH   1   2
BRANCH   1  10
HETATM   10  C8    D T 705       6.835   3.159  -7.908  1.00 53.50     0.111 A 
HETATM   11  C9    D T 705       8.158   2.619  -8.275  1.00 52.76     0.081 A 
HETATM   12  C10   D T 705       8.368   2.223  -9.570  1.00 53.10     0.025 A 
HETATM   13 CL16   D T 705       9.480   2.436  -7.081  1.00 54.87    -0.080 Cl
HETATM   14  C11   D T 705       7.357   2.354 -10.503  1.00 52.79     0.059 A 
HETATM   15  C12   D T 705       6.117   2.876 -10.161  1.00 53.52     0.013 A 
HETATM   16 CL15   D T 705       7.711   1.821 -12.179  1.00 52.95    -0.082 Cl
HETATM   17  C13   D T 705       5.832   3.276  -8.868  1.00 52.90     0.026 A 
ENDBRANCH   1  10
TORSDOF 2
ENDMDL
MODEL 5
REMARK VINA RESULT:    -7.272      9.295     11.505
REMARK INTER + INTRA:          -8.653
REMARK INTER:                  -8.435
REMARK INTRA:                  -0.217
REMARK UNBOUND:                -0.530
REMARK  2 active torsions:
REMARK  status: ('A' for Active; 'I' for Inactive)
REMARK    1  A    between atoms: C5_4  and  O7_13 
REMARK    2  A    between atoms: C8_10  and  O7_13 
ROOT
HETATM    1  O7    D T 705       7.428   5.148   3.648  1.00 53.87    -0.304 OA
ENDROOT
BRANCH   1   2
HETATM    2  C5    D T 705       6.822   5.292   2.452  1.00 53.80     0.125 A 
HETATM    3  C6    D T 705       6.255   6.611   2.149  1.00 53.82     0.154 A 
HETATM    4  C1    D T 705       5.612   6.759   0.938  1.00 52.44     0.041 A 
HETATM    5  O17   D T 705       6.385   7.565   3.068  1.00 52.72    -0.188 OA
HETATM    6  C2    D T 705       5.560   5.675   0.072  1.00 52.70     0.060 A 
HETATM    7  C3    D T 705       6.083   4.435   0.369  1.00 52.61     0.014 A 
HETATM    8 CL14   D T 705       4.783   5.822  -1.519  1.00 53.97    -0.082 Cl
HETATM    9  C4    D T 705       6.718   4.228   1.575  1.00 53.27     0.028 A 
ENDBRANCH   1   2
BRANCH   1  10
HETATM   10  C8    D T 705       7.679   3.906   4.127  1.00 53.50     0.111 A 
HETATM   11  C9    D T 705       6.643   3.283   4.973  1.00 52.76     0.081 A 
HETATM   12  C10   D T 705       6.863   2.020   5.456  1.00 53.10     0.025 A 
HETATM   13 CL16   D T 705       5.102   4.110   5.360  1.00 54.87    -0.080 Cl
HETATM   14  C11   D T 705       8.046   1.367   5.163  1.00 52.79     0.059 A 
HETATM   15  C12   D T 705       9.027   1.959   4.380  1.00 53.52     0.013 A 
HETATM   16 CL15   D T 705       8.264  -0.280   5.838  1.00 52.95    -0.082 Cl
HETATM   17  C13   D T 705       8.860   3.224   3.845  1.00 52.90     0.026 A 
ENDBRANCH   1  10
TORSDOF 2
ENDMDL
MODEL 6
REMARK VINA RESULT:    -7.214      1.952      2.206
REMARK INTER + INTRA:          -8.588
REMARK INTER:                  -8.100
REMARK INTRA:                  -0.488
REMARK UNBOUND:                -0.530
REMARK  2 active torsions:
REMARK  status: ('A' for Active; 'I' for Inactive)
REMARK    1  A    between atoms: C5_4  and  O7_13 
REMARK    2  A    between atoms: C8_10  and  O7_13 
ROOT
HETATM    1  O7    D T 705       4.318   2.008  -7.579  1.00 53.87    -0.304 OA
ENDROOT
BRANCH   1   2
HETATM    2  C5    D T 705       5.271   1.853  -8.519  1.00 53.80     0.125 A 
HETATM    3  C6    D T 705       5.416   2.930  -9.504  1.00 53.82     0.154 A 
HETATM    4  C1    D T 705       6.372   2.767 -10.484  1.00 52.44     0.041 A 
HETATM    5  O17   D T 705       4.605   3.980  -9.395  1.00 52.72    -0.188 OA
HETATM    6  C2    D T 705       7.154   1.620 -10.470  1.00 52.70     0.060 A 
HETATM    7  C3    D T 705       7.004   0.605  -9.551  1.00 52.61     0.014 A 
HETATM    8 CL14   D T 705       8.430   1.377 -11.682  1.00 53.97    -0.082 Cl
HETATM    9  C4    D T 705       6.048   0.710  -8.562  1.00 53.27     0.028 A 
ENDBRANCH   1   2
BRANCH   1  10
HETATM   10  C8    D T 705       4.671   2.336  -6.313  1.00 53.50     0.111 A 
HETATM   11  C9    D T 705       4.561   1.285  -5.284  1.00 52.76     0.081 A 
HETATM   12  C10   D T 705       4.930   1.584  -3.999  1.00 53.10     0.025 A 
HETATM   13 CL16   D T 705       3.994  -0.371  -5.667  1.00 54.87    -0.080 Cl
HETATM   14  C11   D T 705       5.373   2.855  -3.688  1.00 52.79     0.059 A 
HETATM   15  C12   D T 705       5.462   3.849  -4.653  1.00 53.52     0.013 A 
HETATM   16 CL15   D T 705       5.830   3.172  -1.983  1.00 52.95    -0.082 Cl
HETATM   17  C13   D T 705       5.125   3.608  -5.973  1.00 52.90     0.026 A 
ENDBRANCH   1  10
TORSDOF 2
ENDMDL
MODEL 7
REMARK VINA RESULT:    -7.131      1.604      2.385
REMARK INTER + INTRA:          -8.495
REMARK INTER:                  -8.052
REMARK INTRA:                  -0.443
REMARK UNBOUND:                -0.530
REMARK  2 active torsions:
REMARK  status: ('A' for Active; 'I' for Inactive)
REMARK    1  A    between atoms: C5_4  and  O7_13 
REMARK    2  A    between atoms: C8_10  and  O7_13 
ROOT
HETATM    1  O7    D T 705       6.466   3.474  -6.640  1.00 53.87    -0.304 OA
ENDROOT
BRANCH   1   2
HETATM    2  C5    D T 705       6.629   3.134  -7.934  1.00 53.80     0.125 A 
HETATM    3  C6    D T 705       7.956   2.650  -8.332  1.00 53.82     0.154 A 
HETATM    4  C1    D T 705       8.138   2.324  -9.659  1.00 52.44     0.041 A 
HETATM    5  O17   D T 705       8.894   2.575  -7.391  1.00 52.72    -0.188 OA
HETATM    6  C2    D T 705       7.063   2.444 -10.530  1.00 52.70     0.060 A 
HETATM    7  C3    D T 705       5.824   2.914 -10.153  1.00 52.61     0.014 A 
HETATM    8 CL14   D T 705       7.229   1.998 -12.242  1.00 53.97    -0.082 Cl
HETATM    9  C4    D T 705       5.595   3.272  -8.841  1.00 53.27     0.028 A 
ENDBRANCH   1   2
BRANCH   1  10
HETATM   10  C8    D T 705       5.799   2.640  -5.806  1.00 53.50     0.111 A 
HETATM   11  C9    D T 705       4.612   3.177  -5.115  1.00 52.76     0.081 A 
HETATM   12  C10   D T 705       3.909   2.349  -4.280  1.00 53.10     0.025 A 
HETATM   13 CL16   D T 705       4.047   4.860  -5.356  1.00 54.87    -0.080 Cl
HETATM   14  C11   D T 705       4.329   1.047  -4.087  1.00 52.79     0.059 A 
HETATM   15  C12   D T 705       5.455   0.545  -4.725  1.00 53.52     0.013 A 
HETATM   16 CL15   D T 705       3.360   0.028  -2.974  1.00 52.95    -0.082 Cl
HETATM   17  C13   D T 705       6.199   1.322  -5.595  1.00 52.90     0.026 A 
ENDBRANCH   1  10
TORSDOF 2
ENDMDL
MODEL 8
REMARK VINA RESULT:    -6.915      9.099     11.268
REMARK INTER + INTRA:          -8.254
REMARK INTER:                  -7.856
REMARK INTRA:                  -0.398
REMARK UNBOUND:                -0.530
REMARK  2 active torsions:
REMARK  status: ('A' for Active; 'I' for Inactive)
REMARK    1  A    between atoms: C5_4  and  O7_13 
REMARK    2  A    between atoms: C8_10  and  O7_13 
ROOT
HETATM    1  O7    D T 705       7.913   5.867   3.123  1.00 53.87    -0.304 OA
ENDROOT
BRANCH   1   2
HETATM    2  C5    D T 705       7.368   6.045   1.902  1.00 53.80     0.125 A 
HETATM    3  C6    D T 705       6.028   6.640   1.853  1.00 53.82     0.154 A 
HETATM    4  C1    D T 705       5.454   6.802   0.609  1.00 52.44     0.041 A 
HETATM    5  O17   D T 705       5.454   6.965   3.008  1.00 52.72    -0.188 OA
HETATM    6  C2    D T 705       6.176   6.424  -0.515  1.00 52.70     0.060 A 
HETATM    7  C3    D T 705       7.429   5.853  -0.460  1.00 52.61     0.014 A 
HETATM    8 CL14   D T 705       5.504   6.650  -2.143  1.00 53.97    -0.082 Cl
HETATM    9  C4    D T 705       8.040   5.650   0.760  1.00 53.27     0.028 A 
ENDBRANCH   1   2
BRANCH   1  10
HETATM   10  C8    D T 705       7.881   4.642   3.700  1.00 53.50     0.111 A 
HETATM   11  C9    D T 705       9.136   3.869   3.721  1.00 52.76     0.081 A 
HETATM   12  C10   D T 705       9.136   2.634   4.314  1.00 53.10     0.025 A 
HETATM   13 CL16   D T 705      10.660   4.503   3.025  1.00 54.87    -0.080 Cl
HETATM   14  C11   D T 705       7.970   2.132   4.859  1.00 52.79     0.059 A 
HETATM   15  C12   D T 705       6.784   2.853   4.827  1.00 53.52     0.013 A 
HETATM   16 CL15   D T 705       8.048   0.506   5.613  1.00 52.95    -0.082 Cl
HETATM   17  C13   D T 705       6.720   4.114   4.260  1.00 52.90     0.026 A 
ENDBRANCH   1  10
TORSDOF 2
ENDMDL
MODEL 9
REMARK VINA RESULT:    -6.773      2.660      6.252
REMARK INTER + INTRA:          -8.095
REMARK INTER:                  -7.557
REMARK INTRA:                  -0.538
REMARK UNBOUND:                -0.530
REMARK  2 active torsions:
REMARK  status: ('A' for Active; 'I' for Inactive)
REMARK    1  A    between atoms: C5_4  and  O7_13 
REMARK    2  A    between atoms: C8_10  and  O7_13 
ROOT
HETATM    1  O7    D T 705       3.892   2.704  -5.623  1.00 53.87    -0.304 OA
ENDROOT
BRANCH   1   2
HETATM    2  C5    D T 705       4.423   3.136  -4.461  1.00 53.80     0.125 A 
HETATM    3  C6    D T 705       4.254   4.557  -4.141  1.00 53.82     0.154 A 
HETATM    4  C1    D T 705       4.816   5.012  -2.966  1.00 52.44     0.041 A 
HETATM    5  O17   D T 705       3.588   5.312  -5.011  1.00 52.72    -0.188 OA
HETATM    6  C2    D T 705       5.478   4.106  -2.148  1.00 52.70     0.060 A 
HETATM    7  C3    D T 705       5.645   2.774  -2.462  1.00 52.61     0.014 A 
HETATM    8 CL14   D T 705       6.184   4.626  -0.603  1.00 53.97    -0.082 Cl
HETATM    9  C4    D T 705       5.120   2.274  -3.635  1.00 53.27     0.028 A 
ENDBRANCH   1   2
BRANCH   1  10
HETATM   10  C8    D T 705       4.709   2.348  -6.643  1.00 53.50     0.111 A 
HETATM   11  C9    D T 705       4.673   0.940  -7.081  1.00 52.76     0.081 A 
HETATM   12  C10   D T 705       5.476   0.556  -8.122  1.00 53.10     0.025 A 
HETATM   13 CL16   D T 705       3.595  -0.271  -6.317  1.00 54.87    -0.080 Cl
HETATM   14  C11   D T 705       6.311   1.479  -8.724  1.00 52.79     0.059 A 
HETATM   15  C12   D T 705       6.356   2.800  -8.303  1.00 53.52     0.013 A 
HETATM   16 CL15   D T 705       7.337   0.899 -10.076  1.00 52.95    -0.082 Cl
HETATM   17  C13   D T 705       5.557   3.258  -7.269  1.00 52.90     0.026 A 
ENDBRANCH   1  10
TORSDOF 2
ENDMDL
