MODEL 1
REMARK VINA RESULT:    -7.646      0.000      0.000
REMARK INTER + INTRA:          -9.085
REMARK INTER:                  -8.540
REMARK INTRA:                  -0.546
REMARK UNBOUND:                -0.546
REMARK  2 active torsions:
REMARK  status: ('A' for Active; 'I' for Inactive)
REMARK    1  A    between atoms: C5_4  and  O7_13 
REMARK    2  A    between atoms: C8_10  and  O7_13 
ROOT
HETATM    1  O7    D T 705       6.865   1.143  -6.673  1.00 22.05    -0.304 OA
ENDROOT
BRANCH   1   2
HETATM    2  C5    D T 705       5.933   1.895  -6.041  1.00 22.37     0.125 A 
HETATM    3  C6    D T 705       4.775   1.177  -5.483  1.00 22.42     0.154 A 
HETATM    4  C1    D T 705       3.797   1.921  -4.833  1.00 22.18     0.041 A 
HETATM    5  O17   D T 705       4.721  -0.150  -5.628  1.00 21.45    -0.188 OA
HETATM    6  C2    D T 705       3.926   3.294  -4.726  1.00 22.53     0.060 A 
HETATM    7  C3    D T 705       5.027   3.974  -5.262  1.00 22.56     0.014 A 
HETATM    8 CL14   D T 705       2.651   4.208  -3.879  1.00 21.73    -0.082 Cl
HETATM    9  C4    D T 705       6.032   3.272  -5.922  1.00 22.81     0.028 A 
ENDBRANCH   1   2
BRANCH   1  10
HETATM   10  C8    D T 705       7.068   1.308  -8.001  1.00 21.94     0.111 A 
HETATM   11  C9    D T 705       8.312   1.975  -8.405  1.00 22.85     0.081 A 
HETATM   12  C10   D T 705       8.581   2.175  -9.748  1.00 22.60     0.025 A 
HETATM   13 CL16   D T 705       9.430   2.496  -7.124  1.00 21.30    -0.080 Cl
HETATM   14  C11   D T 705       7.655   1.742 -10.675  1.00 22.34     0.059 A 
HETATM   15  C12   D T 705       6.472   1.103 -10.300  1.00 22.46     0.013 A 
HETATM   16 CL15   D T 705       7.973   2.000 -12.398  1.00 24.32    -0.082 Cl
HETATM   17  C13   D T 705       6.168   0.887  -8.967  1.00 21.87     0.026 A 
ENDBRANCH   1  10
TORSDOF 2
ENDMDL
MODEL 2
REMARK VINA RESULT:    -7.642      9.215     11.875
REMARK INTER + INTRA:          -9.081
REMARK INTER:                  -8.681
REMARK INTRA:                  -0.400
REMARK UNBOUND:                -0.546
REMARK  2 active torsions:
REMARK  status: ('A' for Active; 'I' for Inactive)
REMARK    1  A    between atoms: C5_4  and  O7_13 
REMARK    2  A    between atoms: C8_10  and  O7_13 
ROOT
HETATM    1  O7    D T 705       6.061   5.039   3.731  1.00 22.05    -0.304 OA
ENDROOT
BRANCH   1   2
HETATM    2  C5    D T 705       6.055   5.470   2.447  1.00 22.37     0.125 A 
HETATM    3  C6    D T 705       6.404   6.883   2.225  1.00 22.42     0.154 A 
HETATM    4  C1    D T 705       6.402   7.359   0.918  1.00 22.18     0.041 A 
HETATM    5  O17   D T 705       6.705   7.638   3.286  1.00 21.45    -0.188 OA
HETATM    6  C2    D T 705       6.076   6.512  -0.127  1.00 22.53     0.060 A 
HETATM    7  C3    D T 705       5.741   5.170   0.089  1.00 22.56     0.014 A 
HETATM    8 CL14   D T 705       6.093   7.162  -1.787  1.00 21.73    -0.082 Cl
HETATM    9  C4    D T 705       5.729   4.648   1.380  1.00 22.81     0.028 A 
ENDBRANCH   1   2
BRANCH   1  10
HETATM   10  C8    D T 705       6.981   4.129   4.126  1.00 21.94     0.111 A 
HETATM   11  C9    D T 705       6.539   3.110   5.086  1.00 22.85     0.081 A 
HETATM   12  C10   D T 705       7.431   2.150   5.531  1.00 22.60     0.025 A 
HETATM   13 CL16   D T 705       4.848   3.163   5.633  1.00 21.30    -0.080 Cl
HETATM   14  C11   D T 705       8.726   2.187   5.057  1.00 22.34     0.059 A 
HETATM   15  C12   D T 705       9.154   3.148   4.140  1.00 22.46     0.013 A 
HETATM   16 CL15   D T 705       9.887   0.975   5.624  1.00 24.32    -0.082 Cl
HETATM   17  C13   D T 705       8.291   4.126   3.674  1.00 21.87     0.026 A 
ENDBRANCH   1  10
TORSDOF 2
ENDMDL
MODEL 3
REMARK VINA RESULT:    -7.609      1.568      6.086
REMARK INTER + INTRA:          -9.044
REMARK INTER:                  -8.504
REMARK INTRA:                  -0.540
REMARK UNBOUND:                -0.546
REMARK  2 active torsions:
REMARK  status: ('A' for Active; 'I' for Inactive)
REMARK    1  A    between atoms: C5_4  and  O7_13 
REMARK    2  A    between atoms: C8_10  and  O7_13 
ROOT
HETATM    1  O7    D T 705       6.979   1.239  -6.939  1.00 22.05    -0.304 OA
ENDROOT
BRANCH   1   2
HETATM    2  C5    D T 705       7.123   1.406  -8.276  1.00 22.37     0.125 A 
HETATM    3  C6    D T 705       8.371   2.044  -8.729  1.00 22.42     0.154 A 
HETATM    4  C1    D T 705       8.547   2.236 -10.095  1.00 22.18     0.041 A 
HETATM    5  O17   D T 705       9.270   2.406  -7.809  1.00 21.45    -0.188 OA
HETATM    6  C2    D T 705       7.566   1.834 -10.984  1.00 22.53     0.060 A 
HETATM    7  C3    D T 705       6.379   1.232 -10.548  1.00 22.56     0.014 A 
HETATM    8 CL14   D T 705       7.837   2.093 -12.727  1.00 21.73    -0.082 Cl
HETATM    9  C4    D T 705       6.157   1.019  -9.190  1.00 22.81     0.028 A 
ENDBRANCH   1   2
BRANCH   1  10
HETATM   10  C8    D T 705       6.038   1.949  -6.275  1.00 21.94     0.111 A 
HETATM   11  C9    D T 705       4.849   1.216  -5.823  1.00 22.85     0.081 A 
HETATM   12  C10   D T 705       3.848   1.883  -5.138  1.00 22.60     0.025 A 
HETATM   13 CL16   D T 705       4.757  -0.523  -6.184  1.00 21.30    -0.080 Cl
HETATM   14  C11   D T 705       4.000   3.235  -4.905  1.00 22.34     0.059 A 
HETATM   15  C12   D T 705       5.129   3.938  -5.326  1.00 22.46     0.013 A 
HETATM   16 CL15   D T 705       2.725   4.110  -4.042  1.00 24.32    -0.082 Cl
HETATM   17  C13   D T 705       6.150   3.306  -6.017  1.00 21.87     0.026 A 
ENDBRANCH   1  10
TORSDOF 2
ENDMDL
MODEL 4
REMARK VINA RESULT:    -7.451      1.590      2.088
REMARK INTER + INTRA:          -8.867
REMARK INTER:                  -8.569
REMARK INTRA:                  -0.298
REMARK UNBOUND:                -0.546
REMARK  2 active torsions:
REMARK  status: ('A' for Active; 'I' for Inactive)
REMARK    1  A    between atoms: C5_4  and  O7_13 
REMARK    2  A    between atoms: C8_10  and  O7_13 
ROOT
HETATM    1  O7    D T 705       5.812   0.673  -7.245  1.00 22.05    -0.304 OA
ENDROOT
BRANCH   1   2
HETATM    2  C5    D T 705       5.197   1.604  -6.477  1.00 22.37     0.125 A 
HETATM    3  C6    D T 705       4.104   1.126  -5.613  1.00 22.42     0.154 A 
HETATM    4  C1    D T 705       3.448   2.058  -4.816  1.00 22.18     0.041 A 
HETATM    5  O17   D T 705       3.797  -0.173  -5.636  1.00 21.45    -0.188 OA
HETATM    6  C2    D T 705       3.825   3.389  -4.851  1.00 22.53     0.060 A 
HETATM    7  C3    D T 705       4.862   3.839  -5.678  1.00 22.56     0.014 A 
HETATM    8 CL14   D T 705       2.960   4.548  -3.808  1.00 21.73    -0.082 Cl
HETATM    9  C4    D T 705       5.548   2.944  -6.493  1.00 22.81     0.028 A 
ENDBRANCH   1   2
BRANCH   1  10
HETATM   10  C8    D T 705       6.292   1.022  -8.461  1.00 21.94     0.111 A 
HETATM   11  C9    D T 705       5.333   1.041  -9.573  1.00 22.85     0.081 A 
HETATM   12  C10   D T 705       5.758   1.390 -10.844  1.00 22.60     0.025 A 
HETATM   13 CL16   D T 705       3.644   0.611  -9.221  1.00 21.30    -0.080 Cl
HETATM   14  C11   D T 705       7.090   1.705 -11.026  1.00 22.34     0.059 A 
HETATM   15  C12   D T 705       8.007   1.695  -9.975  1.00 22.46     0.013 A 
HETATM   16 CL15   D T 705       7.658   2.141 -12.647  1.00 24.32    -0.082 Cl
HETATM   17  C13   D T 705       7.619   1.350  -8.691  1.00 21.87     0.026 A 
ENDBRANCH   1  10
TORSDOF 2
ENDMDL
MODEL 5
REMARK VINA RESULT:    -7.288      1.874      2.226
REMARK INTER + INTRA:          -8.686
REMARK INTER:                  -8.169
REMARK INTRA:                  -0.517
REMARK UNBOUND:                -0.546
REMARK  2 active torsions:
REMARK  status: ('A' for Active; 'I' for Inactive)
REMARK    1  A    between atoms: C5_4  and  O7_13 
REMARK    2  A    between atoms: C8_10  and  O7_13 
ROOT
HETATM    1  O7    D T 705       6.707   3.460  -6.761  1.00 22.05    -0.304 OA
ENDROOT
BRANCH   1   2
HETATM    2  C5    D T 705       6.000   2.658  -5.930  1.00 22.37     0.125 A 
HETATM    3  C6    D T 705       4.771   3.229  -5.353  1.00 22.42     0.154 A 
HETATM    4  C1    D T 705       4.025   2.433  -4.491  1.00 22.18     0.041 A 
HETATM    5  O17   D T 705       4.433   4.477  -5.685  1.00 21.45    -0.188 OA
HETATM    6  C2    D T 705       4.444   1.148  -4.195  1.00 22.53     0.060 A 
HETATM    7  C3    D T 705       5.616   0.611  -4.743  1.00 22.56     0.014 A 
HETATM    8 CL14   D T 705       3.453   0.160  -3.089  1.00 21.73    -0.082 Cl
HETATM    9  C4    D T 705       6.396   1.369  -5.611  1.00 22.81     0.028 A 
ENDBRANCH   1   2
BRANCH   1  10
HETATM   10  C8    D T 705       6.843   3.118  -8.063  1.00 21.94     0.111 A 
HETATM   11  C9    D T 705       8.147   2.586  -8.478  1.00 22.85     0.081 A 
HETATM   12  C10   D T 705       8.353   2.217  -9.797  1.00 22.60     0.025 A 
HETATM   13 CL16   D T 705       9.416   2.438  -7.241  1.00 21.30    -0.080 Cl
HETATM   14  C11   D T 705       7.312   2.370 -10.691  1.00 22.34     0.059 A 
HETATM   15  C12   D T 705       6.068   2.870 -10.305  1.00 22.46     0.013 A 
HETATM   16 CL15   D T 705       7.559   1.917 -12.385  1.00 24.32    -0.082 Cl
HETATM   17  C13   D T 705       5.826   3.252  -8.996  1.00 21.87     0.026 A 
ENDBRANCH   1  10
TORSDOF 2
ENDMDL
MODEL 6
REMARK VINA RESULT:    -7.209      9.029     10.991
REMARK INTER + INTRA:          -8.597
REMARK INTER:                  -8.040
REMARK INTRA:                  -0.557
REMARK UNBOUND:                -0.546
REMARK  2 active torsions:
REMARK  status: ('A' for Active; 'I' for Inactive)
REMARK    1  A    between atoms: C5_4  and  O7_13 
REMARK    2  A    between atoms: C8_10  and  O7_13 
ROOT
HETATM    1  O7    D T 705       6.899   6.029   3.372  1.00 22.05    -0.304 OA
ENDROOT
BRANCH   1   2
HETATM    2  C5    D T 705       7.482   4.850   3.694  1.00 22.37     0.125 A 
HETATM    3  C6    D T 705       6.658   3.892   4.449  1.00 22.42     0.154 A 
HETATM    4  C1    D T 705       7.229   2.674   4.801  1.00 22.18     0.041 A 
HETATM    5  O17   D T 705       5.406   4.238   4.760  1.00 21.45    -0.188 OA
HETATM    6  C2    D T 705       8.536   2.393   4.443  1.00 22.53     0.060 A 
HETATM    7  C3    D T 705       9.318   3.308   3.728  1.00 22.56     0.014 A 
HETATM    8 CL14   D T 705       9.227   0.816   4.909  1.00 21.73    -0.082 Cl
HETATM    9  C4    D T 705       8.789   4.541   3.354  1.00 22.81     0.028 A 
ENDBRANCH   1   2
BRANCH   1  10
HETATM   10  C8    D T 705       6.675   6.330   2.072  1.00 21.94     0.111 A 
HETATM   11  C9    D T 705       7.372   7.504   1.532  1.00 22.85     0.081 A 
HETATM   12  C10   D T 705       7.187   7.868   0.209  1.00 22.60     0.025 A 
HETATM   13 CL16   D T 705       8.440   8.412   2.626  1.00 21.30    -0.080 Cl
HETATM   14  C11   D T 705       6.336   7.107  -0.567  1.00 22.34     0.059 A 
HETATM   15  C12   D T 705       5.673   5.987  -0.065  1.00 22.46     0.013 A 
HETATM   16 CL15   D T 705       6.074   7.563  -2.259  1.00 24.32    -0.082 Cl
HETATM   17  C13   D T 705       5.831   5.595   1.254  1.00 21.87     0.026 A 
ENDBRANCH   1  10
TORSDOF 2
ENDMDL
MODEL 7
REMARK VINA RESULT:    -7.145      2.081      6.052
REMARK INTER + INTRA:          -8.527
REMARK INTER:                  -8.067
REMARK INTRA:                  -0.460
REMARK UNBOUND:                -0.546
REMARK  2 active torsions:
REMARK  status: ('A' for Active; 'I' for Inactive)
REMARK    1  A    between atoms: C5_4  and  O7_13 
REMARK    2  A    between atoms: C8_10  and  O7_13 
ROOT
HETATM    1  O7    D T 705       6.190   3.528  -6.506  1.00 22.05    -0.304 OA
ENDROOT
BRANCH   1   2
HETATM    2  C5    D T 705       6.390   3.183  -7.801  1.00 22.37     0.125 A 
HETATM    3  C6    D T 705       7.751   2.756  -8.165  1.00 22.42     0.154 A 
HETATM    4  C1    D T 705       7.992   2.402  -9.488  1.00 22.18     0.041 A 
HETATM    5  O17   D T 705       8.686   2.730  -7.211  1.00 21.45    -0.188 OA
HETATM    6  C2    D T 705       6.969   2.458 -10.418  1.00 22.53     0.060 A 
HETATM    7  C3    D T 705       5.677   2.869 -10.068  1.00 22.56     0.014 A 
HETATM    8 CL14   D T 705       7.320   1.988 -12.102  1.00 21.73    -0.082 Cl
HETATM    9  C4    D T 705       5.388   3.234  -8.756  1.00 22.81     0.028 A 
ENDBRANCH   1   2
BRANCH   1  10
HETATM   10  C8    D T 705       5.544   2.672  -5.680  1.00 21.94     0.111 A 
HETATM   11  C9    D T 705       4.384   3.200  -4.952  1.00 22.85     0.081 A 
HETATM   12  C10   D T 705       3.679   2.377  -4.090  1.00 22.60     0.025 A 
HETATM   13 CL16   D T 705       3.935   4.899  -5.222  1.00 21.30    -0.080 Cl
HETATM   14  C11   D T 705       4.101   1.072  -3.937  1.00 22.34     0.059 A 
HETATM   15  C12   D T 705       5.199   0.560  -4.629  1.00 22.46     0.013 A 
HETATM   16 CL15   D T 705       3.221   0.006  -2.829  1.00 24.32    -0.082 Cl
HETATM   17  C13   D T 705       5.930   1.353  -5.498  1.00 21.87     0.026 A 
ENDBRANCH   1  10
TORSDOF 2
ENDMDL
MODEL 8
REMARK VINA RESULT:    -7.137      2.275      6.208
REMARK INTER + INTRA:          -8.518
REMARK INTER:                  -8.018
REMARK INTRA:                  -0.499
REMARK UNBOUND:                -0.546
REMARK  2 active torsions:
REMARK  status: ('A' for Active; 'I' for Inactive)
REMARK    1  A    between atoms: C5_4  and  O7_13 
REMARK    2  A    between atoms: C8_10  and  O7_13 
ROOT
HETATM    1  O7    D T 705       4.258   2.041  -7.480  1.00 22.05    -0.304 OA
ENDROOT
BRANCH   1   2
HETATM    2  C5    D T 705       5.220   1.823  -8.408  1.00 22.37     0.125 A 
HETATM    3  C6    D T 705       5.406   2.873  -9.423  1.00 22.42     0.154 A 
HETATM    4  C1    D T 705       6.381   2.677 -10.394  1.00 22.18     0.041 A 
HETATM    5  O17   D T 705       4.631   3.960  -9.362  1.00 21.45    -0.188 OA
HETATM    6  C2    D T 705       7.142   1.520 -10.389  1.00 22.53     0.060 A 
HETATM    7  C3    D T 705       6.959   0.522  -9.424  1.00 22.56     0.014 A 
HETATM    8 CL14   D T 705       8.386   1.313 -11.649  1.00 21.73    -0.082 Cl
HETATM    9  C4    D T 705       5.994   0.674  -8.432  1.00 22.81     0.028 A 
ENDBRANCH   1   2
BRANCH   1  10
HETATM   10  C8    D T 705       4.612   2.387  -6.220  1.00 21.94     0.111 A 
HETATM   11  C9    D T 705       4.475   1.355  -5.185  1.00 22.85     0.081 A 
HETATM   12  C10   D T 705       4.820   1.642  -3.875  1.00 22.60     0.025 A 
HETATM   13 CL16   D T 705       3.866  -0.242  -5.677  1.00 21.30    -0.080 Cl
HETATM   14  C11   D T 705       5.280   2.910  -3.582  1.00 22.34     0.059 A 
HETATM   15  C12   D T 705       5.418   3.896  -4.559  1.00 22.46     0.013 A 
HETATM   16 CL15   D T 705       5.714   3.304  -1.910  1.00 24.32    -0.082 Cl
HETATM   17  C13   D T 705       5.081   3.645  -5.879  1.00 21.87     0.026 A 
ENDBRANCH   1  10
TORSDOF 2
ENDMDL
MODEL 9
REMARK VINA RESULT:    -6.869      2.770      3.458
REMARK INTER + INTRA:          -8.218
REMARK INTER:                  -7.685
REMARK INTRA:                  -0.533
REMARK UNBOUND:                -0.546
REMARK  2 active torsions:
REMARK  status: ('A' for Active; 'I' for Inactive)
REMARK    1  A    between atoms: C5_4  and  O7_13 
REMARK    2  A    between atoms: C8_10  and  O7_13 
ROOT
HETATM    1  O7    D T 705       4.190   2.883  -6.284  1.00 22.05    -0.304 OA
ENDROOT
BRANCH   1   2
HETATM    2  C5    D T 705       4.659   3.066  -5.027  1.00 22.37     0.125 A 
HETATM    3  C6    D T 705       4.436   4.392  -4.428  1.00 22.42     0.154 A 
HETATM    4  C1    D T 705       4.911   4.615  -3.140  1.00 22.18     0.041 A 
HETATM    5  O17   D T 705       3.791   5.315  -5.147  1.00 21.45    -0.188 OA
HETATM    6  C2    D T 705       5.573   3.607  -2.461  1.00 22.53     0.060 A 
HETATM    7  C3    D T 705       5.786   2.348  -3.036  1.00 22.56     0.014 A 
HETATM    8 CL14   D T 705       6.159   3.933  -0.809  1.00 21.73    -0.082 Cl
HETATM    9  C4    D T 705       5.329   2.078  -4.323  1.00 22.81     0.028 A 
ENDBRANCH   1   2
BRANCH   1  10
HETATM   10  C8    D T 705       5.043   2.515  -7.268  1.00 21.94     0.111 A 
HETATM   11  C9    D T 705       4.778   1.233  -7.932  1.00 22.85     0.081 A 
HETATM   12  C10   D T 705       5.612   0.797  -8.947  1.00 22.60     0.025 A 
HETATM   13 CL16   D T 705       3.371   0.290  -7.389  1.00 21.30    -0.080 Cl
HETATM   14  C11   D T 705       6.684   1.591  -9.302  1.00 22.34     0.059 A 
HETATM   15  C12   D T 705       6.940   2.814  -8.681  1.00 22.46     0.013 A 
HETATM   16 CL15   D T 705       7.772   1.046 -10.589  1.00 24.32    -0.082 Cl
HETATM   17  C13   D T 705       6.129   3.281  -7.660  1.00 21.87     0.026 A 
ENDBRANCH   1  10
TORSDOF 2
ENDMDL
