MODEL 1
REMARK VINA RESULT:    -7.778      0.000      0.000
REMARK INTER + INTRA:          -9.078
REMARK INTER:                  -8.687
REMARK INTRA:                  -0.391
REMARK UNBOUND:                -0.391
REMARK  2 active torsions:
REMARK  status: ('A' for Active; 'I' for Inactive)
REMARK    1  A    between atoms: C5_4  and  O7_13 
REMARK    2  A    between atoms: C8_10  and  O7_13 
ROOT
HETATM    1  O7    D T2414       5.852   0.307  -7.508  1.00 46.04    -0.304 OA
ENDROOT
BRANCH   1   2
HETATM    2  C5    D T2414       5.084   1.162  -6.767  1.00 46.04     0.125 A 
HETATM    3  C6    D T2414       3.981   0.630  -5.918  1.00 45.72     0.154 A 
HETATM    4  C1    D T2414       3.217   1.511  -5.164  1.00 44.92     0.041 A 
HETATM    5  O17   D T2414       3.720  -0.701  -5.896  1.00 46.47    -0.188 OA
HETATM    6  C2    D T2414       3.493   2.874  -5.213  1.00 44.57     0.060 A 
HETATM    7  C3    D T2414       4.527   3.380  -6.008  1.00 45.65     0.014 A 
HETATM    8 CL14   D T2414       2.507   3.991  -4.230  1.00 42.89    -0.082 Cl
HETATM    9  C4    D T2414       5.330   2.534  -6.785  1.00 46.07     0.028 A 
ENDBRANCH   1   2
BRANCH   1  10
HETATM   10  C8    D T2414       6.270   0.575  -8.783  1.00 45.94     0.111 A 
HETATM   11  C9    D T2414       5.281   0.484  -9.886  1.00 45.79     0.081 A 
HETATM   12  C10   D T2414       5.677   0.751 -11.192  1.00 45.84     0.025 A 
HETATM   13 CL16   D T2414       3.589   0.031  -9.520  1.00 44.04    -0.080 Cl
HETATM   14  C11   D T2414       6.999   1.101 -11.442  1.00 45.93     0.059 A 
HETATM   15  C12   D T2414       7.930   1.191 -10.403  1.00 45.73     0.013 A 
HETATM   16 CL15   D T2414       7.510   1.452 -13.126  1.00 45.14    -0.082 Cl
HETATM   17  C13   D T2414       7.581   0.931  -9.081  1.00 45.77     0.026 A 
ENDBRANCH   1  10
TORSDOF 2
ENDMDL
MODEL 2
REMARK VINA RESULT:    -7.693      1.120      5.884
REMARK INTER + INTRA:          -8.983
REMARK INTER:                  -8.645
REMARK INTRA:                  -0.338
REMARK UNBOUND:                -0.391
REMARK  2 active torsions:
REMARK  status: ('A' for Active; 'I' for Inactive)
REMARK    1  A    between atoms: C5_4  and  O7_13 
REMARK    2  A    between atoms: C8_10  and  O7_13 
ROOT
HETATM    1  O7    D T2414       5.882   0.276  -7.597  1.00 46.04    -0.304 OA
ENDROOT
BRANCH   1   2
HETATM    2  C5    D T2414       6.260   0.532  -8.887  1.00 46.04     0.125 A 
HETATM    3  C6    D T2414       5.244   0.529  -9.976  1.00 45.72     0.154 A 
HETATM    4  C1    D T2414       5.643   0.801 -11.279  1.00 44.92     0.041 A 
HETATM    5  O17   D T2414       3.947   0.250  -9.698  1.00 46.47    -0.188 OA
HETATM    6  C2    D T2414       6.982   1.069 -11.545  1.00 44.57     0.060 A 
HETATM    7  C3    D T2414       7.941   1.073 -10.526  1.00 45.65     0.014 A 
HETATM    8 CL14   D T2414       7.475   1.426 -13.223  1.00 42.89    -0.082 Cl
HETATM    9  C4    D T2414       7.591   0.809  -9.195  1.00 46.07     0.028 A 
ENDBRANCH   1   2
BRANCH   1  10
HETATM   10  C8    D T2414       5.137   1.139  -6.840  1.00 45.94     0.111 A 
HETATM   11  C9    D T2414       3.981   0.598  -6.081  1.00 45.79     0.081 A 
HETATM   12  C10   D T2414       3.206   1.451  -5.303  1.00 45.84     0.025 A 
HETATM   13 CL16   D T2414       3.599  -1.147  -6.179  1.00 44.04    -0.080 Cl
HETATM   14  C11   D T2414       3.531   2.802  -5.249  1.00 45.93     0.059 A 
HETATM   15  C12   D T2414       4.621   3.311  -5.959  1.00 45.73     0.013 A 
HETATM   16 CL15   D T2414       2.535   3.903  -4.240  1.00 45.14    -0.082 Cl
HETATM   17  C13   D T2414       5.424   2.497  -6.753  1.00 45.77     0.026 A 
ENDBRANCH   1  10
TORSDOF 2
ENDMDL
MODEL 3
REMARK VINA RESULT:    -7.264      2.354      6.289
REMARK INTER + INTRA:          -8.503
REMARK INTER:                  -8.012
REMARK INTRA:                  -0.491
REMARK UNBOUND:                -0.391
REMARK  2 active torsions:
REMARK  status: ('A' for Active; 'I' for Inactive)
REMARK    1  A    between atoms: C5_4  and  O7_13 
REMARK    2  A    between atoms: C8_10  and  O7_13 
ROOT
HETATM    1  O7    D T2414       4.086   1.746  -7.069  1.00 46.04    -0.304 OA
ENDROOT
BRANCH   1   2
HETATM    2  C5    D T2414       4.993   1.438  -8.045  1.00 46.04     0.125 A 
HETATM    3  C6    D T2414       5.321   2.437  -9.100  1.00 45.72     0.154 A 
HETATM    4  C1    D T2414       6.253   2.112 -10.078  1.00 44.92     0.041 A 
HETATM    5  O17   D T2414       4.705   3.644  -9.112  1.00 46.47    -0.188 OA
HETATM    6  C2    D T2414       6.863   0.862 -10.056  1.00 44.57     0.060 A 
HETATM    7  C3    D T2414       6.559  -0.081  -9.068  1.00 45.65     0.014 A 
HETATM    8 CL14   D T2414       8.065   0.465 -11.315  1.00 42.89    -0.082 Cl
HETATM    9  C4    D T2414       5.630   0.198  -8.057  1.00 46.07     0.028 A 
ENDBRANCH   1   2
BRANCH   1  10
HETATM   10  C8    D T2414       4.433   2.219  -5.832  1.00 45.94     0.111 A 
HETATM   11  C9    D T2414       4.399   1.282  -4.681  1.00 45.79     0.081 A 
HETATM   12  C10   D T2414       4.748   1.734  -3.413  1.00 45.84     0.025 A 
HETATM   13 CL16   D T2414       3.911  -0.419  -4.940  1.00 44.04    -0.080 Cl
HETATM   14  C11   D T2414       5.123   3.062  -3.246  1.00 45.93     0.059 A 
HETATM   15  C12   D T2414       5.159   3.944  -4.330  1.00 45.73     0.013 A 
HETATM   16 CL15   D T2414       5.578   3.646  -1.611  1.00 45.14    -0.082 Cl
HETATM   17  C13   D T2414       4.817   3.538  -5.617  1.00 45.77     0.026 A 
ENDBRANCH   1  10
TORSDOF 2
ENDMDL
MODEL 4
REMARK VINA RESULT:    -7.197      2.499      6.308
REMARK INTER + INTRA:          -8.430
REMARK INTER:                  -7.908
REMARK INTRA:                  -0.522
REMARK UNBOUND:                -0.391
REMARK  2 active torsions:
REMARK  status: ('A' for Active; 'I' for Inactive)
REMARK    1  A    between atoms: C5_4  and  O7_13 
REMARK    2  A    between atoms: C8_10  and  O7_13 
ROOT
HETATM    1  O7    D T2414       5.962   2.964  -7.196  1.00 46.04    -0.304 OA
ENDROOT
BRANCH   1   2
HETATM    2  C5    D T2414       6.303   2.520  -8.444  1.00 46.04     0.125 A 
HETATM    3  C6    D T2414       5.503   2.940  -9.629  1.00 45.72     0.154 A 
HETATM    4  C1    D T2414       5.868   2.488 -10.891  1.00 44.92     0.041 A 
HETATM    5  O17   D T2414       4.422   3.743  -9.473  1.00 46.47    -0.188 OA
HETATM    6  C2    D T2414       6.972   1.652 -11.027  1.00 44.57     0.060 A 
HETATM    7  C3    D T2414       7.727   1.254  -9.918  1.00 45.65     0.014 A 
HETATM    8 CL14   D T2414       7.433   1.089 -12.657  1.00 42.89    -0.082 Cl
HETATM    9  C4    D T2414       7.404   1.684  -8.625  1.00 46.07     0.028 A 
ENDBRANCH   1   2
BRANCH   1  10
HETATM   10  C8    D T2414       5.304   2.199  -6.272  1.00 45.94     0.111 A 
HETATM   11  C9    D T2414       6.050   1.737  -5.074  1.00 45.79     0.081 A 
HETATM   12  C10   D T2414       5.406   0.958  -4.119  1.00 45.84     0.025 A 
HETATM   13 CL16   D T2414       7.770   2.187  -4.877  1.00 44.04    -0.080 Cl
HETATM   14  C11   D T2414       4.068   0.627  -4.303  1.00 45.93     0.059 A 
HETATM   15  C12   D T2414       3.364   1.065  -5.428  1.00 45.73     0.013 A 
HETATM   16 CL15   D T2414       3.235  -0.373  -3.067  1.00 45.14    -0.082 Cl
HETATM   17  C13   D T2414       3.967   1.844  -6.412  1.00 45.77     0.026 A 
ENDBRANCH   1  10
TORSDOF 2
ENDMDL
MODEL 5
REMARK VINA RESULT:    -7.135      2.131      2.339
REMARK INTER + INTRA:          -8.360
REMARK INTER:                  -7.906
REMARK INTRA:                  -0.454
REMARK UNBOUND:                -0.391
REMARK  2 active torsions:
REMARK  status: ('A' for Active; 'I' for Inactive)
REMARK    1  A    between atoms: C5_4  and  O7_13 
REMARK    2  A    between atoms: C8_10  and  O7_13 
ROOT
HETATM    1  O7    D T2414       4.063   1.733  -7.025  1.00 46.04    -0.304 OA
ENDROOT
BRANCH   1   2
HETATM    2  C5    D T2414       4.397   2.184  -5.777  1.00 46.04     0.125 A 
HETATM    3  C6    D T2414       4.378   1.251  -4.617  1.00 45.72     0.154 A 
HETATM    4  C1    D T2414       4.730   1.722  -3.358  1.00 44.92     0.041 A 
HETATM    5  O17   D T2414       4.007  -0.042  -4.787  1.00 46.47    -0.188 OA
HETATM    6  C2    D T2414       5.093   3.057  -3.203  1.00 44.57     0.060 A 
HETATM    7  C3    D T2414       5.113   3.938  -4.289  1.00 45.65     0.014 A 
HETATM    8 CL14   D T2414       5.552   3.643  -1.580  1.00 42.89    -0.082 Cl
HETATM    9  C4    D T2414       4.771   3.513  -5.579  1.00 46.07     0.028 A 
ENDBRANCH   1   2
BRANCH   1  10
HETATM   10  C8    D T2414       4.982   1.396  -7.981  1.00 45.94     0.111 A 
HETATM   11  C9    D T2414       5.322   2.399  -9.022  1.00 45.79     0.081 A 
HETATM   12  C10   D T2414       6.254   2.084 -10.005  1.00 45.84     0.025 A 
HETATM   13 CL16   D T2414       4.528   4.001  -8.997  1.00 44.04    -0.080 Cl
HETATM   14  C11   D T2414       6.853   0.829  -9.995  1.00 45.93     0.059 A 
HETATM   15  C12   D T2414       6.537  -0.113  -9.013  1.00 45.73     0.013 A 
HETATM   16 CL15   D T2414       8.059   0.423 -11.260  1.00 45.14    -0.082 Cl
HETATM   17  C13   D T2414       5.610   0.155  -8.009  1.00 45.77     0.026 A 
ENDBRANCH   1  10
TORSDOF 2
ENDMDL
MODEL 6
REMARK VINA RESULT:    -7.100      2.314      2.608
REMARK INTER + INTRA:          -8.321
REMARK INTER:                  -8.028
REMARK INTRA:                  -0.292
REMARK UNBOUND:                -0.391
REMARK  2 active torsions:
REMARK  status: ('A' for Active; 'I' for Inactive)
REMARK    1  A    between atoms: C5_4  and  O7_13 
REMARK    2  A    between atoms: C8_10  and  O7_13 
ROOT
HETATM    1  O7    D T2414       6.462   2.919  -7.092  1.00 46.04    -0.304 OA
ENDROOT
BRANCH   1   2
HETATM    2  C5    D T2414       5.766   2.199  -6.161  1.00 46.04     0.125 A 
HETATM    3  C6    D T2414       4.635   2.829  -5.424  1.00 45.72     0.154 A 
HETATM    4  C1    D T2414       3.931   2.081  -4.488  1.00 44.92     0.041 A 
HETATM    5  O17   D T2414       4.306   4.124  -5.657  1.00 46.47    -0.188 OA
HETATM    6  C2    D T2414       4.295   0.758  -4.254  1.00 44.57     0.060 A 
HETATM    7  C3    D T2414       5.357   0.161  -4.943  1.00 45.65     0.014 A 
HETATM    8 CL14   D T2414       3.375  -0.192  -3.056  1.00 42.89    -0.082 Cl
HETATM    9  C4    D T2414       6.095   0.870  -5.899  1.00 46.07     0.028 A 
ENDBRANCH   1   2
BRANCH   1  10
HETATM   10  C8    D T2414       6.656   2.504  -8.382  1.00 45.94     0.111 A 
HETATM   11  C9    D T2414       5.738   3.010  -9.434  1.00 45.79     0.081 A 
HETATM   12  C10   D T2414       5.912   2.605 -10.753  1.00 45.84     0.025 A 
HETATM   13 CL16   D T2414       4.419   4.133  -8.990  1.00 44.04    -0.080 Cl
HETATM   14  C11   D T2414       6.947   1.732 -11.064  1.00 45.93     0.059 A 
HETATM   15  C12   D T2414       7.814   1.259 -10.075  1.00 45.73     0.013 A 
HETATM   16 CL15   D T2414       7.176   1.213 -12.767  1.00 45.14    -0.082 Cl
HETATM   17  C13   D T2414       7.679   1.633  -8.741  1.00 45.77     0.026 A 
ENDBRANCH   1  10
TORSDOF 2
ENDMDL
MODEL 7
REMARK VINA RESULT:    -7.053      2.165      2.692
REMARK INTER + INTRA:          -8.268
REMARK INTER:                  -7.752
REMARK INTRA:                  -0.515
REMARK UNBOUND:                -0.391
REMARK  2 active torsions:
REMARK  status: ('A' for Active; 'I' for Inactive)
REMARK    1  A    between atoms: C5_4  and  O7_13 
REMARK    2  A    between atoms: C8_10  and  O7_13 
ROOT
HETATM    1  O7    D T2414       5.877   0.980  -5.335  1.00 46.04    -0.304 OA
ENDROOT
BRANCH   1   2
HETATM    2  C5    D T2414       5.124   2.003  -4.828  1.00 46.04     0.125 A 
HETATM    3  C6    D T2414       5.674   2.871  -3.749  1.00 45.72     0.154 A 
HETATM    4  C1    D T2414       4.900   3.912  -3.252  1.00 44.92     0.041 A 
HETATM    5  O17   D T2414       6.913   2.636  -3.250  1.00 46.47    -0.188 OA
HETATM    6  C2    D T2414       3.625   4.126  -3.769  1.00 44.57     0.060 A 
HETATM    7  C3    D T2414       3.103   3.314  -4.782  1.00 45.65     0.014 A 
HETATM    8 CL14   D T2414       2.648   5.474  -3.125  1.00 42.89    -0.082 Cl
HETATM    9  C4    D T2414       3.844   2.254  -5.320  1.00 46.07     0.028 A 
ENDBRANCH   1   2
BRANCH   1  10
HETATM   10  C8    D T2414       6.318   0.932  -6.630  1.00 45.94     0.111 A 
HETATM   11  C9    D T2414       5.746  -0.097  -7.535  1.00 45.79     0.081 A 
HETATM   12  C10   D T2414       6.174  -0.169  -8.856  1.00 45.84     0.025 A 
HETATM   13 CL16   D T2414       4.512  -1.233  -6.912  1.00 44.04    -0.080 Cl
HETATM   14  C11   D T2414       7.133   0.730  -9.308  1.00 45.93     0.059 A 
HETATM   15  C12   D T2414       7.669   1.702  -8.458  1.00 45.73     0.013 A 
HETATM   16 CL15   D T2414       7.682   0.642 -11.014  1.00 45.14    -0.082 Cl
HETATM   17  C13   D T2414       7.273   1.811  -7.128  1.00 45.77     0.026 A 
ENDBRANCH   1  10
TORSDOF 2
ENDMDL
MODEL 8
REMARK VINA RESULT:    -7.034      4.219      4.848
REMARK INTER + INTRA:          -8.247
REMARK INTER:                  -8.008
REMARK INTRA:                  -0.239
REMARK UNBOUND:                -0.391
REMARK  2 active torsions:
REMARK  status: ('A' for Active; 'I' for Inactive)
REMARK    1  A    between atoms: C5_4  and  O7_13 
REMARK    2  A    between atoms: C8_10  and  O7_13 
ROOT
HETATM    1  O7    D T2414       7.339   1.350  -6.125  1.00 46.04    -0.304 OA
ENDROOT
BRANCH   1   2
HETATM    2  C5    D T2414       8.552   1.258  -5.499  1.00 46.04     0.125 A 
HETATM    3  C6    D T2414       8.733   1.832  -4.136  1.00 45.72     0.154 A 
HETATM    4  C1    D T2414       9.968   1.720  -3.509  1.00 44.92     0.041 A 
HETATM    5  O17   D T2414       7.705   2.468  -3.521  1.00 46.47    -0.188 OA
HETATM    6  C2    D T2414      11.013   1.077  -4.165  1.00 44.57     0.060 A 
HETATM    7  C3    D T2414      10.849   0.536  -5.445  1.00 45.65     0.014 A 
HETATM    8 CL14   D T2414      12.591   0.934  -3.341  1.00 42.89    -0.082 Cl
HETATM    9  C4    D T2414       9.624   0.618  -6.118  1.00 46.07     0.028 A 
ENDBRANCH   1   2
BRANCH   1  10
HETATM   10  C8    D T2414       7.183   1.317  -7.484  1.00 45.94     0.111 A 
HETATM   11  C9    D T2414       6.341   0.245  -8.074  1.00 45.79     0.081 A 
HETATM   12  C10   D T2414       6.164   0.186  -9.452  1.00 45.84     0.025 A 
HETATM   13 CL16   D T2414       5.566  -0.959  -7.002  1.00 44.04    -0.080 Cl
HETATM   14  C11   D T2414       6.781   1.138 -10.256  1.00 45.93     0.059 A 
HETATM   15  C12   D T2414       7.569   2.150  -9.701  1.00 45.73     0.013 A 
HETATM   16 CL15   D T2414       6.549   1.067 -12.034  1.00 45.14    -0.082 Cl
HETATM   17  C13   D T2414       7.778   2.248  -8.328  1.00 45.77     0.026 A 
ENDBRANCH   1  10
TORSDOF 2
ENDMDL
MODEL 9
REMARK VINA RESULT:    -6.943      2.514      3.018
REMARK INTER + INTRA:          -8.145
REMARK INTER:                  -7.620
REMARK INTRA:                  -0.525
REMARK UNBOUND:                -0.391
REMARK  2 active torsions:
REMARK  status: ('A' for Active; 'I' for Inactive)
REMARK    1  A    between atoms: C5_4  and  O7_13 
REMARK    2  A    between atoms: C8_10  and  O7_13 
ROOT
HETATM    1  O7    D T2414       4.115   1.917  -6.526  1.00 46.04    -0.304 OA
ENDROOT
BRANCH   1   2
HETATM    2  C5    D T2414       4.503   2.505  -5.353  1.00 46.04     0.125 A 
HETATM    3  C6    D T2414       4.218   3.948  -5.113  1.00 45.72     0.154 A 
HETATM    4  C1    D T2414       4.610   4.528  -3.912  1.00 44.92     0.041 A 
HETATM    5  O17   D T2414       3.595   4.688  -6.063  1.00 46.47    -0.188 OA
HETATM    6  C2    D T2414       5.262   3.754  -2.958  1.00 44.57     0.060 A 
HETATM    7  C3    D T2414       5.533   2.399  -3.178  1.00 45.65     0.014 A 
HETATM    8 CL14   D T2414       5.750   4.512  -1.417  1.00 42.89    -0.082 Cl
HETATM    9  C4    D T2414       5.155   1.765  -4.369  1.00 46.07     0.028 A 
ENDBRANCH   1   2
BRANCH   1  10
HETATM   10  C8    D T2414       4.973   1.634  -7.553  1.00 45.94     0.111 A 
HETATM   11  C9    D T2414       5.345   0.217  -7.796  1.00 45.79     0.081 A 
HETATM   12  C10   D T2414       6.214  -0.100  -8.834  1.00 45.84     0.025 A 
HETATM   13 CL16   D T2414       4.667  -1.065  -6.749  1.00 44.04    -0.080 Cl
HETATM   14  C11   D T2414       6.722   0.921  -9.629  1.00 45.93     0.059 A 
HETATM   15  C12   D T2414       6.370   2.254  -9.404  1.00 45.73     0.013 A 
HETATM   16 CL15   D T2414       7.840   0.512 -10.972  1.00 45.14    -0.082 Cl
HETATM   17  C13   D T2414       5.504   2.621  -8.376  1.00 45.77     0.026 A 
ENDBRANCH   1  10
TORSDOF 2
ENDMDL
