MODEL 1
REMARK VINA RESULT:    -7.781      0.000      0.000
REMARK INTER + INTRA:          -9.076
REMARK INTER:                  -8.691
REMARK INTRA:                  -0.385
REMARK UNBOUND:                -0.385
REMARK  2 active torsions:
REMARK  status: ('A' for Active; 'I' for Inactive)
REMARK    1  A    between atoms: C5_4  and  O7_13 
REMARK    2  A    between atoms: C8_10  and  O7_13 
ROOT
HETATM    1  O7    D T 601       5.681   0.178  -7.521  1.00 22.91    -0.304 OA
ENDROOT
BRANCH   1   2
HETATM    2  C5    D T 601       4.944   1.084  -6.759  1.00 20.74     0.121 A 
HETATM    3  C6    D T 601       3.926   0.624  -5.903  1.00 18.69     0.136 A 
HETATM    4  C1    D T 601       3.160   1.570  -5.105  1.00 19.14     0.094 A 
HETATM    5  O17   D T 601       3.687  -0.718  -5.854  1.00 19.23    -0.192 OA
HETATM    6  C2    D T 601       3.446   2.972  -5.192  1.00 17.42     0.042 A 
HETATM    7  C3    D T 601       4.477   3.423  -6.064  1.00 18.45     0.010 A 
HETATM    8 CL14   D T 601       2.579   4.095  -4.276  1.00  7.86    -0.087 Cl
HETATM    9  C4    D T 601       5.231   2.477  -6.847  1.00 18.04     0.027 A 
ENDBRANCH   1   2
BRANCH   1  10
HETATM   10  C8    D T 601       6.133   0.504  -8.819  1.00 22.66     0.111 A 
HETATM   11  C9    D T 601       5.166   0.458  -9.898  1.00 21.19     0.081 A 
HETATM   12  C10   D T 601       5.590   0.758 -11.229  1.00 21.37     0.025 A 
HETATM   13 CL16   D T 601       3.500   0.025  -9.613  1.00 20.16    -0.080 Cl
HETATM   14  C11   D T 601       6.968   1.109 -11.496  1.00 19.62     0.059 A 
HETATM   15  C12   D T 601       7.922   1.163 -10.429  1.00 21.14     0.013 A 
HETATM   16 CL15   D T 601       7.464   1.452 -13.080  1.00 11.58    -0.082 Cl
HETATM   17  C13   D T 601       7.515   0.864  -9.104  1.00 20.93     0.026 A 
ENDBRANCH   1  10
TORSDOF 2
ENDMDL
MODEL 2
REMARK VINA RESULT:    -7.625      1.183      5.909
REMARK INTER + INTRA:          -8.902
REMARK INTER:                  -8.621
REMARK INTRA:                  -0.281
REMARK UNBOUND:                -0.385
REMARK  2 active torsions:
REMARK  status: ('A' for Active; 'I' for Inactive)
REMARK    1  A    between atoms: C5_4  and  O7_13 
REMARK    2  A    between atoms: C8_10  and  O7_13 
ROOT
HETATM    1  O7    D T 601       5.854   0.099  -7.817  1.00 22.91    -0.304 OA
ENDROOT
BRANCH   1   2
HETATM    2  C5    D T 601       6.248   0.442  -9.110  1.00 20.74     0.121 A 
HETATM    3  C6    D T 601       5.302   0.485 -10.150  1.00 18.69     0.136 A 
HETATM    4  C1    D T 601       5.714   0.848 -11.498  1.00 19.14     0.094 A 
HETATM    5  O17   D T 601       4.007   0.178  -9.853  1.00 19.23    -0.192 OA
HETATM    6  C2    D T 601       7.088   1.162 -11.763  1.00 17.42     0.042 A 
HETATM    7  C3    D T 601       8.035   1.111 -10.701  1.00 18.45     0.010 A 
HETATM    8 CL14   D T 601       7.598   1.590 -13.316  1.00  7.86    -0.087 Cl
HETATM    9  C4    D T 601       7.615   0.754  -9.371  1.00 18.04     0.027 A 
ENDBRANCH   1   2
BRANCH   1  10
HETATM   10  C8    D T 601       5.130   1.000  -7.005  1.00 22.66     0.111 A 
HETATM   11  C9    D T 601       4.051   0.460  -6.201  1.00 21.19     0.081 A 
HETATM   12  C10   D T 601       3.279   1.344  -5.385  1.00 21.37     0.025 A 
HETATM   13 CL16   D T 601       3.658  -1.240  -6.222  1.00 20.16    -0.080 Cl
HETATM   14  C11   D T 601       3.575   2.760  -5.357  1.00 19.62     0.059 A 
HETATM   15  C12   D T 601       4.647   3.292  -6.145  1.00 21.14     0.013 A 
HETATM   16 CL15   D T 601       2.648   3.802  -4.395  1.00 11.58    -0.082 Cl
HETATM   17  C13   D T 601       5.418   2.426  -6.962  1.00 20.93     0.026 A 
ENDBRANCH   1  10
TORSDOF 2
ENDMDL
MODEL 3
REMARK VINA RESULT:    -7.397      2.492      3.063
REMARK INTER + INTRA:          -8.647
REMARK INTER:                  -8.228
REMARK INTRA:                  -0.419
REMARK UNBOUND:                -0.385
REMARK  2 active torsions:
REMARK  status: ('A' for Active; 'I' for Inactive)
REMARK    1  A    between atoms: C5_4  and  O7_13 
REMARK    2  A    between atoms: C8_10  and  O7_13 
ROOT
HETATM    1  O7    D T 601       4.882   3.182  -7.639  1.00 22.91    -0.304 OA
ENDROOT
BRANCH   1   2
HETATM    2  C5    D T 601       4.546   2.378  -6.550  1.00 20.74     0.121 A 
HETATM    3  C6    D T 601       4.749   2.843  -5.238  1.00 18.69     0.136 A 
HETATM    4  C1    D T 601       4.394   2.005  -4.102  1.00 19.14     0.094 A 
HETATM    5  O17   D T 601       5.283   4.088  -5.074  1.00 19.23    -0.192 OA
HETATM    6  C2    D T 601       3.836   0.703  -4.325  1.00 17.42     0.042 A 
HETATM    7  C3    D T 601       3.640   0.244  -5.657  1.00 18.45     0.010 A 
HETATM    8 CL14   D T 601       3.410  -0.293  -3.028  1.00  7.86    -0.087 Cl
HETATM    9  C4    D T 601       3.992   1.084  -6.773  1.00 18.04     0.027 A 
ENDBRANCH   1   2
BRANCH   1  10
HETATM   10  C8    D T 601       5.517   2.647  -8.781  1.00 22.66     0.111 A 
HETATM   11  C9    D T 601       6.943   2.400  -8.703  1.00 21.19     0.081 A 
HETATM   12  C10   D T 601       7.625   1.882  -9.847  1.00 21.37     0.025 A 
HETATM   13 CL16   D T 601       7.850   2.739  -7.252  1.00 20.16    -0.080 Cl
HETATM   14  C11   D T 601       6.900   1.603 -11.067  1.00 19.62     0.059 A 
HETATM   15  C12   D T 601       5.489   1.839 -11.142  1.00 21.14     0.013 A 
HETATM   16 CL15   D T 601       7.720   0.999 -12.422  1.00 11.58    -0.082 Cl
HETATM   17  C13   D T 601       4.800   2.357 -10.015  1.00 20.93     0.026 A 
ENDBRANCH   1  10
TORSDOF 2
ENDMDL
MODEL 4
REMARK VINA RESULT:    -7.212      2.208      6.206
REMARK INTER + INTRA:          -8.440
REMARK INTER:                  -8.154
REMARK INTRA:                  -0.286
REMARK UNBOUND:                -0.385
REMARK  2 active torsions:
REMARK  status: ('A' for Active; 'I' for Inactive)
REMARK    1  A    between atoms: C5_4  and  O7_13 
REMARK    2  A    between atoms: C8_10  and  O7_13 
ROOT
HETATM    1  O7    D T 601       6.208   3.096  -7.018  1.00 22.91    -0.304 OA
ENDROOT
BRANCH   1   2
HETATM    2  C5    D T 601       6.425   2.674  -8.330  1.00 20.74     0.121 A 
HETATM    3  C6    D T 601       5.562   3.092  -9.360  1.00 18.69     0.136 A 
HETATM    4  C1    D T 601       5.792   2.655 -10.729  1.00 19.14     0.094 A 
HETATM    5  O17   D T 601       4.518   3.906  -9.031  1.00 19.23    -0.192 OA
HETATM    6  C2    D T 601       6.902   1.797 -11.025  1.00 17.42     0.042 A 
HETATM    7  C3    D T 601       7.766   1.381  -9.974  1.00 18.45     0.010 A 
HETATM    8 CL14   D T 601       7.200   1.275 -12.605  1.00  7.86    -0.087 Cl
HETATM    9  C4    D T 601       7.530   1.822  -8.623  1.00 18.04     0.027 A 
ENDBRANCH   1   2
BRANCH   1  10
HETATM   10  C8    D T 601       5.543   2.275  -6.081  1.00 22.66     0.111 A 
HETATM   11  C9    D T 601       4.382   2.825  -5.411  1.00 21.19     0.081 A 
HETATM   12  C10   D T 601       3.697   2.033  -4.438  1.00 21.37     0.025 A 
HETATM   13 CL16   D T 601       3.812   4.439  -5.749  1.00 20.16    -0.080 Cl
HETATM   14  C11   D T 601       4.155   0.696  -4.130  1.00 19.62     0.059 A 
HETATM   15  C12   D T 601       5.297   0.149  -4.799  1.00 21.14     0.013 A 
HETATM   16 CL15   D T 601       3.342  -0.232  -2.966  1.00 11.58    -0.082 Cl
HETATM   17  C13   D T 601       5.988   0.925  -5.763  1.00 20.93     0.026 A 
ENDBRANCH   1  10
TORSDOF 2
ENDMDL
MODEL 5
REMARK VINA RESULT:    -7.123      2.150      2.328
REMARK INTER + INTRA:          -8.341
REMARK INTER:                  -7.888
REMARK INTRA:                  -0.453
REMARK UNBOUND:                -0.385
REMARK  2 active torsions:
REMARK  status: ('A' for Active; 'I' for Inactive)
REMARK    1  A    between atoms: C5_4  and  O7_13 
REMARK    2  A    between atoms: C8_10  and  O7_13 
ROOT
HETATM    1  O7    D T 601       4.042   1.679  -7.025  1.00 22.91    -0.304 OA
ENDROOT
BRANCH   1   2
HETATM    2  C5    D T 601       4.424   2.105  -5.753  1.00 20.74     0.121 A 
HETATM    3  C6    D T 601       4.418   1.204  -4.673  1.00 18.69     0.136 A 
HETATM    4  C1    D T 601       4.821   1.648  -3.347  1.00 19.14     0.094 A 
HETATM    5  O17   D T 601       4.024  -0.080  -4.912  1.00 19.23    -0.192 OA
HETATM    6  C2    D T 601       5.226   3.009  -3.145  1.00 17.42     0.042 A 
HETATM    7  C3    D T 601       5.225   3.910  -4.246  1.00 18.45     0.010 A 
HETATM    8 CL14   D T 601       5.704   3.556  -1.619  1.00  7.86    -0.087 Cl
HETATM    9  C4    D T 601       4.827   3.458  -5.554  1.00 18.04     0.027 A 
ENDBRANCH   1   2
BRANCH   1  10
HETATM   10  C8    D T 601       4.999   1.374  -8.018  1.00 22.66     0.111 A 
HETATM   11  C9    D T 601       5.277   2.386  -9.016  1.00 21.19     0.081 A 
HETATM   12  C10   D T 601       6.222   2.105 -10.051  1.00 21.37     0.025 A 
HETATM   13 CL16   D T 601       4.470   3.934  -8.998  1.00 20.16    -0.080 Cl
HETATM   14  C11   D T 601       6.896   0.827 -10.098  1.00 19.62     0.059 A 
HETATM   15  C12   D T 601       6.628  -0.171  -9.106  1.00 21.14     0.013 A 
HETATM   16 CL15   D T 601       8.007   0.498 -11.336  1.00 11.58    -0.082 Cl
HETATM   17  C13   D T 601       5.690   0.093  -8.076  1.00 20.93     0.026 A 
ENDBRANCH   1  10
TORSDOF 2
ENDMDL
MODEL 6
REMARK VINA RESULT:    -7.072      2.400      2.694
REMARK INTER + INTRA:          -8.284
REMARK INTER:                  -7.859
REMARK INTRA:                  -0.425
REMARK UNBOUND:                -0.385
REMARK  2 active torsions:
REMARK  status: ('A' for Active; 'I' for Inactive)
REMARK    1  A    between atoms: C5_4  and  O7_13 
REMARK    2  A    between atoms: C8_10  and  O7_13 
ROOT
HETATM    1  O7    D T 601       6.318   3.047  -7.023  1.00 22.91    -0.304 OA
ENDROOT
BRANCH   1   2
HETATM    2  C5    D T 601       5.602   2.284  -6.101  1.00 20.74     0.121 A 
HETATM    3  C6    D T 601       6.195   1.908  -4.882  1.00 18.69     0.136 A 
HETATM    4  C1    D T 601       5.445   1.116  -3.917  1.00 19.14     0.094 A 
HETATM    5  O17   D T 601       7.477   2.306  -4.643  1.00 19.23    -0.192 OA
HETATM    6  C2    D T 601       4.100   0.719  -4.214  1.00 17.42     0.042 A 
HETATM    7  C3    D T 601       3.514   1.104  -5.453  1.00 18.45     0.010 A 
HETATM    8 CL14   D T 601       3.201  -0.197  -3.115  1.00  7.86    -0.087 Cl
HETATM    9  C4    D T 601       4.264   1.891  -6.397  1.00 18.04     0.027 A 
ENDBRANCH   1   2
BRANCH   1  10
HETATM   10  C8    D T 601       6.537   2.592  -8.342  1.00 22.66     0.111 A 
HETATM   11  C9    D T 601       5.687   3.127  -9.387  1.00 21.19     0.081 A 
HETATM   12  C10   D T 601       5.863   2.673 -10.731  1.00 21.37     0.025 A 
HETATM   13 CL16   D T 601       4.439   4.296  -9.040  1.00 20.16    -0.080 Cl
HETATM   14  C11   D T 601       6.882   1.695 -11.045  1.00 19.62     0.059 A 
HETATM   15  C12   D T 601       7.729   1.174 -10.014  1.00 21.14     0.013 A 
HETATM   16 CL15   D T 601       7.076   1.154 -12.640  1.00 11.58    -0.082 Cl
HETATM   17  C13   D T 601       7.562   1.612  -8.675  1.00 20.93     0.026 A 
ENDBRANCH   1  10
TORSDOF 2
ENDMDL
MODEL 7
REMARK VINA RESULT:    -6.852      2.012      6.315
REMARK INTER + INTRA:          -8.038
REMARK INTER:                  -7.537
REMARK INTRA:                  -0.501
REMARK UNBOUND:                -0.385
REMARK  2 active torsions:
REMARK  status: ('A' for Active; 'I' for Inactive)
REMARK    1  A    between atoms: C5_4  and  O7_13 
REMARK    2  A    between atoms: C8_10  and  O7_13 
ROOT
HETATM    1  O7    D T 601       5.667   0.722  -5.525  1.00 22.91    -0.304 OA
ENDROOT
BRANCH   1   2
HETATM    2  C5    D T 601       6.104   0.700  -6.849  1.00 20.74     0.121 A 
HETATM    3  C6    D T 601       5.409  -0.055  -7.811  1.00 18.69     0.136 A 
HETATM    4  C1    D T 601       5.863  -0.074  -9.194  1.00 19.14     0.094 A 
HETATM    5  O17   D T 601       4.314  -0.759  -7.405  1.00 19.23    -0.192 OA
HETATM    6  C2    D T 601       7.021   0.682  -9.573  1.00 17.42     0.042 A 
HETATM    7  C3    D T 601       7.715   1.440  -8.589  1.00 18.45     0.010 A 
HETATM    8 CL14   D T 601       7.572   0.685 -11.170  1.00  7.86    -0.087 Cl
HETATM    9  C4    D T 601       7.255   1.453  -7.224  1.00 18.04     0.027 A 
ENDBRANCH   1   2
BRANCH   1  10
HETATM   10  C8    D T 601       4.975   1.834  -4.996  1.00 22.66     0.111 A 
HETATM   11  C9    D T 601       5.708   2.727  -4.121  1.00 21.19     0.081 A 
HETATM   12  C10   D T 601       5.036   3.850  -3.547  1.00 21.37     0.025 A 
HETATM   13 CL16   D T 601       7.387   2.451  -3.733  1.00 20.16    -0.080 Cl
HETATM   14  C11   D T 601       3.641   4.096  -3.840  1.00 19.62     0.059 A 
HETATM   15  C12   D T 601       2.918   3.219  -4.713  1.00 21.14     0.013 A 
HETATM   16 CL15   D T 601       2.849   5.424  -3.146  1.00 11.58    -0.082 Cl
HETATM   17  C13   D T 601       3.572   2.098  -5.286  1.00 20.93     0.026 A 
ENDBRANCH   1  10
TORSDOF 2
ENDMDL
MODEL 8
REMARK VINA RESULT:    -6.818      1.749      1.981
REMARK INTER + INTRA:          -8.000
REMARK INTER:                  -7.702
REMARK INTRA:                  -0.299
REMARK UNBOUND:                -0.385
REMARK  2 active torsions:
REMARK  status: ('A' for Active; 'I' for Inactive)
REMARK    1  A    between atoms: C5_4  and  O7_13 
REMARK    2  A    between atoms: C8_10  and  O7_13 
ROOT
HETATM    1  O7    D T 601       4.156   1.490  -6.878  1.00 22.91    -0.304 OA
ENDROOT
BRANCH   1   2
HETATM    2  C5    D T 601       4.381   2.335  -5.792  1.00 20.74     0.121 A 
HETATM    3  C6    D T 601       4.771   1.802  -4.550  1.00 18.69     0.136 A 
HETATM    4  C1    D T 601       5.010   2.684  -3.417  1.00 19.14     0.094 A 
HETATM    5  O17   D T 601       4.913   0.449  -4.449  1.00 19.23    -0.192 OA
HETATM    6  C2    D T 601       4.847   4.101  -3.572  1.00 17.42     0.042 A 
HETATM    7  C3    D T 601       4.449   4.626  -4.834  1.00 18.45     0.010 A 
HETATM    8 CL14   D T 601       5.120   5.153  -2.279  1.00  7.86    -0.087 Cl
HETATM    9  C4    D T 601       4.219   3.742  -5.948  1.00 18.04     0.027 A 
ENDBRANCH   1   2
BRANCH   1  10
HETATM   10  C8    D T 601       5.125   1.320  -7.892  1.00 22.66     0.111 A 
HETATM   11  C9    D T 601       4.762   0.514  -9.040  1.00 21.19     0.081 A 
HETATM   12  C10   D T 601       5.723   0.300 -10.075  1.00 21.37     0.025 A 
HETATM   13 CL16   D T 601       3.184  -0.218  -9.179  1.00 20.16    -0.080 Cl
HETATM   14  C11   D T 601       7.043   0.885  -9.980  1.00 19.62     0.059 A 
HETATM   15  C12   D T 601       7.399   1.689  -8.850  1.00 21.14     0.013 A 
HETATM   16 CL15   D T 601       8.181   0.616 -11.207  1.00 11.58    -0.082 Cl
HETATM   17  C13   D T 601       6.456   1.906  -7.814  1.00 20.93     0.026 A 
ENDBRANCH   1  10
TORSDOF 2
ENDMDL
MODEL 9
REMARK VINA RESULT:    -6.763      2.265      2.736
REMARK INTER + INTRA:          -7.939
REMARK INTER:                  -7.573
REMARK INTRA:                  -0.366
REMARK UNBOUND:                -0.385
REMARK  2 active torsions:
REMARK  status: ('A' for Active; 'I' for Inactive)
REMARK    1  A    between atoms: C5_4  and  O7_13 
REMARK    2  A    between atoms: C8_10  and  O7_13 
ROOT
HETATM    1  O7    D T 601       6.428   0.745  -6.219  1.00 22.91    -0.304 OA
ENDROOT
BRANCH   1   2
HETATM    2  C5    D T 601       5.585   1.645  -5.566  1.00 20.74     0.121 A 
HETATM    3  C6    D T 601       6.039   2.345  -4.434  1.00 18.69     0.136 A 
HETATM    4  C1    D T 601       5.160   3.288  -3.756  1.00 19.14     0.094 A 
HETATM    5  O17   D T 601       7.310   2.110  -4.001  1.00 19.23    -0.192 OA
HETATM    6  C2    D T 601       3.830   3.500  -4.248  1.00 17.42     0.042 A 
HETATM    7  C3    D T 601       3.383   2.783  -5.393  1.00 18.45     0.010 A 
HETATM    8 CL14   D T 601       2.786   4.590  -3.487  1.00  7.86    -0.087 Cl
HETATM    9  C4    D T 601       4.263   1.856  -6.057  1.00 18.04     0.027 A 
ENDBRANCH   1   2
BRANCH   1  10
HETATM   10  C8    D T 601       6.661   0.831  -7.610  1.00 22.66     0.111 A 
HETATM   11  C9    D T 601       7.677   1.758  -8.064  1.00 21.19     0.081 A 
HETATM   12  C10   D T 601       7.925   1.891  -9.465  1.00 21.37     0.025 A 
HETATM   13 CL16   D T 601       8.592   2.733  -6.942  1.00 20.16    -0.080 Cl
HETATM   14  C11   D T 601       7.173   1.104 -10.419  1.00 19.62     0.059 A 
HETATM   15  C12   D T 601       6.175   0.180  -9.969  1.00 21.14     0.013 A 
HETATM   16 CL15   D T 601       7.467   1.276 -12.079  1.00 11.58    -0.082 Cl
HETATM   17  C13   D T 601       5.916   0.043  -8.582  1.00 20.93     0.026 A 
ENDBRANCH   1  10
TORSDOF 2
ENDMDL
