MODEL 1
REMARK VINA RESULT:    -9.346      0.000      0.000
REMARK INTER + INTRA:         -12.708
REMARK INTER:                 -12.624
REMARK INTRA:                  -0.083
REMARK UNBOUND:                -0.083
REMARK  6 active torsions:
REMARK  status: ('A' for Active; 'I' for Inactive)
REMARK       I    between atoms: N1_1  and  C25_25 
REMARK    1  A    between atoms: C3_3  and  N5_5 
REMARK       I    between atoms: N5_5  and  C6_6 
REMARK    2  A    between atoms: C6_6  and  C7_7 
REMARK    3  A    between atoms: N17_17  and  C24_24 
REMARK    4  A    between atoms: C25_25  and  C20_32 
REMARK    5  A    between atoms: C27_27  and  C20_32 
REMARK    6  A    between atoms: C20_32  and  O34_35 
ROOT
HETATM    1  N1    D T1504       3.302  14.184  -0.562  1.00 17.57    -0.308 N 
HETATM    2  N2    D T1504       6.492  15.807  -1.117  1.00 15.62    -0.149 NA
HETATM    3  C3    D T1504       6.809  14.328   0.525  1.00 16.85     0.186 A 
HETATM    4  N4    D T1504       7.427  15.295  -0.178  1.00 16.47    -0.129 NA
HETATM    5  C13   D T1504       5.343  15.121  -0.948  1.00 16.13     0.104 A 
HETATM    6  C14   D T1504       5.502  14.170   0.107  1.00 16.03     0.055 A 
HETATM    7  C15   D T1504       4.225  13.426   0.344  1.00 17.80     0.136 C 
HETATM    8  C16   D T1504       3.961  15.113  -1.505  1.00 15.77     0.152 C 
HETATM    9  C25   D T1504       1.965  14.068  -0.569  1.00 17.72     0.266 C 
HETATM   10  O26   D T1504       1.255  14.714  -1.337  1.00 20.29    -0.269 OA
ENDROOT
BRANCH   3  11
HETATM   11  N5    D T1504       7.494  13.674   1.524  1.00 18.99    -0.187 NA
HETATM   12  C6    D T1504       7.859  12.402   1.517  1.00 22.32     0.281 C 
HETATM   13  O8    D T1504       7.656  11.634   0.595  1.00 19.91    -0.265 OA
BRANCH  12  14
HETATM   14  C7    D T1504       8.576  11.891   2.706  1.00 23.69     0.058 A 
HETATM   15  C9    D T1504       9.841  12.399   2.954  1.00 24.20     0.006 A 
HETATM   16  C10   D T1504      10.570  11.984   4.049  1.00 24.36     0.017 A 
HETATM   17  C24   D T1504      10.016  11.043   4.887  1.00 26.38     0.060 A 
HETATM   18  C11   D T1504       8.733  10.520   4.631  1.00 25.51     0.017 A 
HETATM   19  C12   D T1504       7.998  10.944   3.539  1.00 23.62     0.006 A 
BRANCH  17  20
HETATM   20  N17   D T1504      10.753  10.619   6.005  1.00 29.22    -0.324 N 
HETATM   21  C18   D T1504      11.491  11.416   6.673  1.00 32.43     0.088 C 
HETATM   22  C19   D T1504      12.726  10.998   6.990  1.00 34.59     0.066 C 
HETATM   23  N20   D T1504      13.063   9.598   7.008  1.00 35.81    -0.247 NA
HETATM   24  C21   D T1504      12.124   8.751   6.220  1.00 34.06     0.101 C 
HETATM   25  C23   D T1504      14.425   9.372   6.486  1.00 33.95     0.094 C 
HETATM   26  C22   D T1504      10.680   9.210   6.405  1.00 31.87     0.124 C 
ENDBRANCH  17  20
ENDBRANCH  12  14
ENDBRANCH   3  11
BRANCH   9  27
HETATM   27  C20   D T1504       1.318  13.129   0.402  1.00 16.01     0.216 C 
BRANCH  27  28
HETATM   28  C27   D T1504      -0.163  13.274   0.258  1.00 17.19     0.014 A 
HETATM   29  C28   D T1504      -0.919  13.825   1.319  1.00 16.33    -0.001 A 
HETATM   30  C31   D T1504      -2.296  13.993   1.184  1.00 15.88    -0.000 A 
HETATM   31  C35   D T1504      -2.917  13.592  -0.017  1.00 16.13    -0.000 A 
HETATM   32  C33   D T1504      -2.178  13.038  -1.068  1.00 13.90    -0.000 A 
HETATM   33  C29   D T1504      -0.809  12.870  -0.930  1.00 15.13    -0.001 A 
ENDBRANCH  27  28
BRANCH  27  34
HETATM   34  O34   D T1504       1.787  11.805   0.134  1.00 17.91    -0.340 OA
HETATM   35  C36   D T1504       1.987  10.995   1.309  1.00 15.51     0.175 C 
ENDBRANCH  27  34
ENDBRANCH   9  27
TORSDOF 6
ENDMDL
MODEL 2
REMARK VINA RESULT:    -9.043      6.945     11.435
REMARK INTER + INTRA:         -12.298
REMARK INTER:                 -11.086
REMARK INTRA:                  -1.212
REMARK UNBOUND:                -0.083
REMARK  6 active torsions:
REMARK  status: ('A' for Active; 'I' for Inactive)
REMARK       I    between atoms: N1_1  and  C25_25 
REMARK    1  A    between atoms: C3_3  and  N5_5 
REMARK       I    between atoms: N5_5  and  C6_6 
REMARK    2  A    between atoms: C6_6  and  C7_7 
REMARK    3  A    between atoms: N17_17  and  C24_24 
REMARK    4  A    between atoms: C25_25  and  C20_32 
REMARK    5  A    between atoms: C27_27  and  C20_32 
REMARK    6  A    between atoms: C20_32  and  O34_35 
ROOT
HETATM    1  N1    D T1504       9.791  17.773  -5.577  1.00 17.57    -0.308 N 
HETATM    2  N2    D T1504       6.860  17.637  -7.701  1.00 15.62    -0.149 NA
HETATM    3  C3    D T1504       6.278  16.711  -5.755  1.00 16.85     0.186 A 
HETATM    4  N4    D T1504       5.822  16.975  -6.994  1.00 16.47    -0.129 NA
HETATM    5  C13   D T1504       7.904  17.754  -6.856  1.00 16.13     0.104 A 
HETATM    6  C14   D T1504       7.574  17.160  -5.599  1.00 16.03     0.055 A 
HETATM    7  C15   D T1504       8.735  17.238  -4.657  1.00 17.80     0.136 C 
HETATM    8  C16   D T1504       9.301  18.272  -6.881  1.00 15.77     0.152 C 
HETATM    9  C25   D T1504      11.101  17.828  -5.295  1.00 17.72     0.266 C 
HETATM   10  O26   D T1504      11.925  18.280  -6.088  1.00 20.29    -0.269 OA
ENDROOT
BRANCH   3  11
HETATM   11  N5    D T1504       5.466  16.050  -4.861  1.00 18.99    -0.187 NA
HETATM   12  C6    D T1504       5.020  16.527  -3.710  1.00 22.32     0.281 C 
HETATM   13  O8    D T1504       5.252  17.647  -3.295  1.00 19.91    -0.265 OA
BRANCH  12  14
HETATM   14  C7    D T1504       4.170  15.640  -2.886  1.00 23.69     0.058 A 
HETATM   15  C9    D T1504       3.111  16.223  -2.208  1.00 24.20     0.006 A 
HETATM   16  C10   D T1504       2.263  15.463  -1.429  1.00 24.36     0.017 A 
HETATM   17  C24   D T1504       2.499  14.110  -1.331  1.00 26.38     0.060 A 
HETATM   18  C11   D T1504       3.580  13.519  -2.015  1.00 25.51     0.017 A 
HETATM   19  C12   D T1504       4.423  14.278  -2.804  1.00 23.62     0.006 A 
BRANCH  17  20
HETATM   20  N17   D T1504       1.636  13.331  -0.542  1.00 29.22    -0.324 N 
HETATM   21  C18   D T1504       0.377  13.528  -0.516  1.00 32.43     0.088 C 
HETATM   22  C19   D T1504      -0.221  13.557   0.685  1.00 34.59     0.066 C 
HETATM   23  N20   D T1504       0.387  12.949   1.840  1.00 35.81    -0.247 NA
HETATM   24  C21   D T1504       1.854  12.738   1.698  1.00 34.06     0.101 C 
HETATM   25  C23   D T1504       0.161  13.764   3.051  1.00 33.95     0.094 C 
HETATM   26  C22   D T1504       2.210  12.268   0.289  1.00 31.87     0.124 C 
ENDBRANCH  17  20
ENDBRANCH  12  14
ENDBRANCH   3  11
BRANCH   9  27
HETATM   27  C20   D T1504      11.575  17.307  -3.973  1.00 16.01     0.216 C 
BRANCH  27  28
HETATM   28  C27   D T1504      12.502  16.164  -4.240  1.00 17.19     0.014 A 
HETATM   29  C28   D T1504      13.817  16.192  -3.719  1.00 16.33    -0.001 A 
HETATM   30  C31   D T1504      14.679  15.119  -3.936  1.00 15.88    -0.000 A 
HETATM   31  C35   D T1504      14.222  14.019  -4.690  1.00 16.13    -0.000 A 
HETATM   32  C33   D T1504      12.925  13.986  -5.215  1.00 13.90    -0.000 A 
HETATM   33  C29   D T1504      12.071  15.056  -5.001  1.00 15.13    -0.001 A 
ENDBRANCH  27  28
BRANCH  27  34
HETATM   34  O34   D T1504      12.191  18.380  -3.257  1.00 17.91    -0.340 OA
HETATM   35  C36   D T1504      11.382  18.932  -2.200  1.00 15.51     0.175 C 
ENDBRANCH  27  34
ENDBRANCH   9  27
TORSDOF 6
ENDMDL
MODEL 3
REMARK VINA RESULT:    -9.032      2.561      5.043
REMARK INTER + INTRA:         -12.283
REMARK INTER:                 -11.270
REMARK INTRA:                  -1.013
REMARK UNBOUND:                -0.083
REMARK  6 active torsions:
REMARK  status: ('A' for Active; 'I' for Inactive)
REMARK       I    between atoms: N1_1  and  C25_25 
REMARK    1  A    between atoms: C3_3  and  N5_5 
REMARK       I    between atoms: N5_5  and  C6_6 
REMARK    2  A    between atoms: C6_6  and  C7_7 
REMARK    3  A    between atoms: N17_17  and  C24_24 
REMARK    4  A    between atoms: C25_25  and  C20_32 
REMARK    5  A    between atoms: C27_27  and  C20_32 
REMARK    6  A    between atoms: C20_32  and  O34_35 
ROOT
HETATM    1  N1    D T1504       2.925  15.311  -1.230  1.00 17.57    -0.308 N 
HETATM    2  N2    D T1504       1.869  12.124   0.130  1.00 15.62    -0.149 NA
HETATM    3  C3    D T1504       3.962  12.453   0.833  1.00 16.85     0.186 A 
HETATM    4  N4    D T1504       2.956  11.558   0.847  1.00 16.47    -0.129 NA
HETATM    5  C13   D T1504       2.260  13.346  -0.285  1.00 16.13     0.104 A 
HETATM    6  C14   D T1504       3.604  13.590   0.136  1.00 16.03     0.055 A 
HETATM    7  C15   D T1504       4.077  14.924  -0.352  1.00 17.80     0.136 C 
HETATM    8  C16   D T1504       1.714  14.474  -1.092  1.00 15.77     0.152 C 
HETATM    9  C25   D T1504       2.929  16.337  -2.094  1.00 17.72     0.266 C 
HETATM   10  O26   D T1504       1.953  16.611  -2.790  1.00 20.29    -0.269 OA
ENDROOT
BRANCH   3  11
HETATM   11  N5    D T1504       5.154  12.142   1.450  1.00 18.99    -0.187 NA
HETATM   12  C6    D T1504       5.327  11.907   2.740  1.00 22.32     0.281 C 
HETATM   13  O8    D T1504       4.432  11.909   3.565  1.00 19.91    -0.265 OA
BRANCH  12  14
HETATM   14  C7    D T1504       6.700  11.607   3.201  1.00 23.69     0.058 A 
HETATM   15  C9    D T1504       7.729  12.374   2.678  1.00 24.20     0.006 A 
HETATM   16  C10   D T1504       9.036  12.167   3.066  1.00 24.36     0.017 A 
HETATM   17  C24   D T1504       9.299  11.171   3.979  1.00 26.38     0.060 A 
HETATM   18  C11   D T1504       8.254  10.385   4.505  1.00 25.51     0.017 A 
HETATM   19  C12   D T1504       6.942  10.600   4.124  1.00 23.62     0.006 A 
BRANCH  17  20
HETATM   20  N17   D T1504      10.628  10.957   4.380  1.00 29.22    -0.324 N 
HETATM   21  C18   D T1504      11.317   9.974   3.950  1.00 32.43     0.088 C 
HETATM   22  C19   D T1504      12.016   9.266   4.850  1.00 34.59     0.066 C 
HETATM   23  N20   D T1504      12.367   9.821   6.132  1.00 35.81    -0.247 NA
HETATM   24  C21   D T1504      11.521  10.981   6.530  1.00 34.06     0.101 C 
HETATM   25  C23   D T1504      12.271   8.803   7.197  1.00 33.95     0.094 C 
HETATM   26  C22   D T1504      11.235  11.889   5.336  1.00 31.87     0.124 C 
ENDBRANCH  17  20
ENDBRANCH  12  14
ENDBRANCH   3  11
BRANCH   9  27
HETATM   27  C20   D T1504       4.170  17.165  -2.225  1.00 16.01     0.216 C 
BRANCH  27  28
HETATM   28  C27   D T1504       4.776  16.869  -3.559  1.00 17.19     0.014 A 
HETATM   29  C28   D T1504       4.594  17.778  -4.628  1.00 16.33    -0.001 A 
HETATM   30  C31   D T1504       5.180  17.528  -5.868  1.00 15.88    -0.000 A 
HETATM   31  C35   D T1504       5.940  16.353  -6.037  1.00 16.13    -0.000 A 
HETATM   32  C33   D T1504       6.119  15.445  -4.988  1.00 13.90    -0.000 A 
HETATM   33  C29   D T1504       5.533  15.695  -3.757  1.00 15.13    -0.001 A 
ENDBRANCH  27  28
BRANCH  27  34
HETATM   34  O34   D T1504       3.818  18.540  -2.054  1.00 17.91    -0.340 OA
HETATM   35  C36   D T1504       3.387  18.884  -0.723  1.00 15.51     0.175 C 
ENDBRANCH  27  34
ENDBRANCH   9  27
TORSDOF 6
ENDMDL
MODEL 4
REMARK VINA RESULT:    -8.918      3.441     11.416
REMARK INTER + INTRA:         -12.129
REMARK INTER:                 -11.166
REMARK INTRA:                  -0.963
REMARK UNBOUND:                -0.083
REMARK  6 active torsions:
REMARK  status: ('A' for Active; 'I' for Inactive)
REMARK       I    between atoms: N1_1  and  C25_25 
REMARK    1  A    between atoms: C3_3  and  N5_5 
REMARK       I    between atoms: N5_5  and  C6_6 
REMARK    2  A    between atoms: C6_6  and  C7_7 
REMARK    3  A    between atoms: N17_17  and  C24_24 
REMARK    4  A    between atoms: C25_25  and  C20_32 
REMARK    5  A    between atoms: C27_27  and  C20_32 
REMARK    6  A    between atoms: C20_32  and  O34_35 
ROOT
HETATM    1  N1    D T1504       7.781  11.011   3.558  1.00 17.57    -0.308 N 
HETATM    2  N2    D T1504       4.172  11.285   3.439  1.00 15.62    -0.149 NA
HETATM    3  C3    D T1504       4.962  12.575   1.796  1.00 16.85     0.186 A 
HETATM    4  N4    D T1504       3.824  12.203   2.412  1.00 16.47    -0.129 NA
HETATM    5  C13   D T1504       5.511  11.134   3.399  1.00 16.13     0.104 A 
HETATM    6  C14   D T1504       6.057  11.956   2.365  1.00 16.03     0.055 A 
HETATM    7  C15   D T1504       7.550  11.838   2.330  1.00 17.80     0.136 C 
HETATM    8  C16   D T1504       6.570  10.404   4.151  1.00 15.77     0.152 C 
HETATM    9  C25   D T1504       8.978  10.793   4.124  1.00 17.72     0.266 C 
HETATM   10  O26   D T1504       9.111  10.102   5.132  1.00 20.29    -0.269 OA
ENDROOT
BRANCH   3  11
HETATM   11  N5    D T1504       4.907  13.483   0.763  1.00 18.99    -0.187 NA
HETATM   12  C6    D T1504       4.944  13.200  -0.528  1.00 22.32     0.281 C 
HETATM   13  O8    D T1504       5.005  12.073  -0.983  1.00 19.91    -0.265 OA
BRANCH  12  14
HETATM   14  C7    D T1504       4.890  14.333  -1.478  1.00 23.69     0.058 A 
HETATM   15  C9    D T1504       3.721  15.076  -1.518  1.00 24.20     0.006 A 
HETATM   16  C10   D T1504       3.595  16.156  -2.366  1.00 24.36     0.017 A 
HETATM   17  C24   D T1504       4.657  16.475  -3.183  1.00 26.38     0.060 A 
HETATM   18  C11   D T1504       5.843  15.715  -3.149  1.00 25.51     0.017 A 
HETATM   19  C12   D T1504       5.973  14.639  -2.291  1.00 23.62     0.006 A 
BRANCH  17  20
HETATM   20  N17   D T1504       4.535  17.576  -4.047  1.00 29.22    -0.324 N 
HETATM   21  C18   D T1504       3.576  18.412  -3.951  1.00 32.43     0.088 C 
HETATM   22  C19   D T1504       2.946  18.764  -5.081  1.00 34.59     0.066 C 
HETATM   23  N20   D T1504       3.570  18.605  -6.369  1.00 35.81    -0.247 NA
HETATM   24  C21   D T1504       4.694  17.628  -6.368  1.00 34.06     0.101 C 
HETATM   25  C23   D T1504       2.591  18.169  -7.385  1.00 33.95     0.094 C 
HETATM   26  C22   D T1504       5.537  17.759  -5.102  1.00 31.87     0.124 C 
ENDBRANCH  17  20
ENDBRANCH  12  14
ENDBRANCH   3  11
BRANCH   9  27
HETATM   27  C20   D T1504      10.190  11.426   3.512  1.00 16.01     0.216 C 
BRANCH  27  28
HETATM   28  C27   D T1504      11.154  11.725   4.615  1.00 17.19     0.014 A 
HETATM   29  C28   D T1504      10.990  12.897   5.389  1.00 16.33    -0.001 A 
HETATM   30  C31   D T1504      11.864  13.171   6.440  1.00 15.88    -0.000 A 
HETATM   31  C35   D T1504      12.915  12.270   6.704  1.00 16.13    -0.000 A 
HETATM   32  C33   D T1504      13.089  11.111   5.939  1.00 13.90    -0.000 A 
HETATM   33  C29   D T1504      12.221  10.843   4.892  1.00 15.13    -0.001 A 
ENDBRANCH  27  28
BRANCH  27  34
HETATM   34  O34   D T1504      10.717  10.536   2.525  1.00 17.91    -0.340 OA
HETATM   35  C36   D T1504      11.150  11.182   1.311  1.00 15.51     0.175 C 
ENDBRANCH  27  34
ENDBRANCH   9  27
TORSDOF 6
ENDMDL
MODEL 5
REMARK VINA RESULT:    -8.875      2.627      5.112
REMARK INTER + INTRA:         -12.072
REMARK INTER:                 -11.574
REMARK INTRA:                  -0.498
REMARK UNBOUND:                -0.083
REMARK  6 active torsions:
REMARK  status: ('A' for Active; 'I' for Inactive)
REMARK       I    between atoms: N1_1  and  C25_25 
REMARK    1  A    between atoms: C3_3  and  N5_5 
REMARK       I    between atoms: N5_5  and  C6_6 
REMARK    2  A    between atoms: C6_6  and  C7_7 
REMARK    3  A    between atoms: N17_17  and  C24_24 
REMARK    4  A    between atoms: C25_25  and  C20_32 
REMARK    5  A    between atoms: C27_27  and  C20_32 
REMARK    6  A    between atoms: C20_32  and  O34_35 
ROOT
HETATM    1  N1    D T1504       4.650  14.414  -0.852  1.00 17.57    -0.308 N 
HETATM    2  N2    D T1504       2.950  12.272   1.521  1.00 15.62    -0.149 NA
HETATM    3  C3    D T1504       5.078  12.392   2.185  1.00 16.85     0.186 A 
HETATM    4  N4    D T1504       3.901  11.801   2.465  1.00 16.47    -0.129 NA
HETATM    5  C13   D T1504       3.590  13.136   0.709  1.00 16.13     0.104 A 
HETATM    6  C14   D T1504       4.964  13.231   1.095  1.00 16.03     0.055 A 
HETATM    7  C15   D T1504       5.707  14.153   0.179  1.00 17.80     0.136 C 
HETATM    8  C16   D T1504       3.288  13.966  -0.491  1.00 15.77     0.152 C 
HETATM    9  C25   D T1504       4.861  15.015  -2.033  1.00 17.72     0.266 C 
HETATM   10  O26   D T1504       3.955  15.207  -2.842  1.00 20.29    -0.269 OA
ENDROOT
BRANCH   3  11
HETATM   11  N5    D T1504       6.185  12.091   2.948  1.00 18.99    -0.187 NA
HETATM   12  C6    D T1504       7.322  11.582   2.505  1.00 22.32     0.281 C 
HETATM   13  O8    D T1504       7.555  11.331   1.337  1.00 19.91    -0.265 OA
BRANCH  12  14
HETATM   14  C7    D T1504       8.384  11.316   3.500  1.00 23.69     0.058 A 
HETATM   15  C9    D T1504       8.210  10.230   4.343  1.00 24.20     0.006 A 
HETATM   16  C10   D T1504       9.160   9.906   5.289  1.00 24.36     0.017 A 
HETATM   17  C24   D T1504      10.284  10.695   5.385  1.00 26.38     0.060 A 
HETATM   18  C11   D T1504      10.458  11.804   4.534  1.00 25.51     0.017 A 
HETATM   19  C12   D T1504       9.511  12.122   3.578  1.00 23.62     0.006 A 
BRANCH  17  20
HETATM   20  N17   D T1504      11.257  10.369   6.346  1.00 29.22    -0.324 N 
HETATM   21  C18   D T1504      12.070  11.234   6.809  1.00 32.43     0.088 C 
HETATM   22  C19   D T1504      13.365  10.891   6.882  1.00 34.59     0.066 C 
HETATM   23  N20   D T1504      13.775   9.511   6.895  1.00 35.81    -0.247 NA
HETATM   24  C21   D T1504      12.744   8.579   6.358  1.00 34.06     0.101 C 
HETATM   25  C23   D T1504      15.013   9.317   6.113  1.00 33.95     0.094 C 
HETATM   26  C22   D T1504      11.345   8.983   6.816  1.00 31.87     0.124 C 
ENDBRANCH  17  20
ENDBRANCH  12  14
ENDBRANCH   3  11
BRANCH   9  27
HETATM   27  C20   D T1504       6.251  15.451  -2.382  1.00 16.01     0.216 C 
BRANCH  27  28
HETATM   28  C27   D T1504       6.287  15.725  -3.851  1.00 17.19     0.014 A 
HETATM   29  C28   D T1504       5.792  16.955  -4.346  1.00 16.33    -0.001 A 
HETATM   30  C31   D T1504       5.848  17.234  -5.711  1.00 15.88    -0.000 A 
HETATM   31  C35   D T1504       6.391  16.268  -6.582  1.00 16.13    -0.000 A 
HETATM   32  C33   D T1504       6.876  15.046  -6.102  1.00 13.90    -0.000 A 
HETATM   33  C29   D T1504       6.816  14.770  -4.745  1.00 15.13    -0.001 A 
ENDBRANCH  27  28
BRANCH  27  34
HETATM   34  O34   D T1504       6.582  16.591  -1.585  1.00 17.91    -0.340 OA
HETATM   35  C36   D T1504       7.983  16.710  -1.269  1.00 15.51     0.175 C 
ENDBRANCH  27  34
ENDBRANCH   9  27
TORSDOF 6
ENDMDL
MODEL 6
REMARK VINA RESULT:    -8.855      2.209      4.442
REMARK INTER + INTRA:         -12.044
REMARK INTER:                 -11.759
REMARK INTRA:                  -0.285
REMARK UNBOUND:                -0.083
REMARK  6 active torsions:
REMARK  status: ('A' for Active; 'I' for Inactive)
REMARK       I    between atoms: N1_1  and  C25_25 
REMARK    1  A    between atoms: C3_3  and  N5_5 
REMARK       I    between atoms: N5_5  and  C6_6 
REMARK    2  A    between atoms: C6_6  and  C7_7 
REMARK    3  A    between atoms: N17_17  and  C24_24 
REMARK    4  A    between atoms: C25_25  and  C20_32 
REMARK    5  A    between atoms: C27_27  and  C20_32 
REMARK    6  A    between atoms: C20_32  and  O34_35 
ROOT
HETATM    1  N1    D T1504       2.116  13.846   0.117  1.00 17.57    -0.308 N 
HETATM    2  N2    D T1504       1.591  10.894   2.149  1.00 15.62    -0.149 NA
HETATM    3  C3    D T1504       3.690  11.557   2.521  1.00 16.85     0.186 A 
HETATM    4  N4    D T1504       2.805  10.588   2.819  1.00 16.47    -0.129 NA
HETATM    5  C13   D T1504       1.789  12.046   1.475  1.00 16.13     0.104 A 
HETATM    6  C14   D T1504       3.130  12.497   1.678  1.00 16.03     0.055 A 
HETATM    7  C15   D T1504       3.389  13.752   0.903  1.00 17.80     0.136 C 
HETATM    8  C16   D T1504       1.034  12.937   0.550  1.00 15.77     0.152 C 
HETATM    9  C25   D T1504       1.910  14.681  -0.914  1.00 17.72     0.266 C 
HETATM   10  O26   D T1504       0.843  14.718  -1.524  1.00 20.29    -0.269 OA
ENDROOT
BRANCH   3  11
HETATM   11  N5    D T1504       4.966  11.489   3.034  1.00 18.99    -0.187 NA
HETATM   12  C6    D T1504       6.089  11.667   2.358  1.00 22.32     0.281 C 
HETATM   13  O8    D T1504       6.142  11.946   1.175  1.00 19.91    -0.265 OA
BRANCH  12  14
HETATM   14  C7    D T1504       7.362  11.532   3.100  1.00 23.69     0.058 A 
HETATM   15  C9    D T1504       7.451  10.507   4.029  1.00 24.20     0.006 A 
HETATM   16  C10   D T1504       8.608  10.305   4.752  1.00 24.36     0.017 A 
HETATM   17  C24   D T1504       9.671  11.153   4.540  1.00 26.38     0.060 A 
HETATM   18  C11   D T1504       9.578  12.200   3.602  1.00 25.51     0.017 A 
HETATM   19  C12   D T1504       8.422  12.396   2.868  1.00 23.62     0.006 A 
BRANCH  17  20
HETATM   20  N17   D T1504      10.853  10.950   5.273  1.00 29.22    -0.324 N 
HETATM   21  C18   D T1504      11.799  11.804   5.284  1.00 32.43     0.088 C 
HETATM   22  C19   D T1504      13.048  11.347   5.110  1.00 34.59     0.066 C 
HETATM   23  N20   D T1504      13.385   9.969   5.362  1.00 35.81    -0.247 NA
HETATM   24  C21   D T1504      12.206   9.058   5.354  1.00 34.06     0.101 C 
HETATM   25  C23   D T1504      14.353   9.467   4.367  1.00 33.95     0.094 C 
HETATM   26  C22   D T1504      11.004   9.707   6.036  1.00 31.87     0.124 C 
ENDBRANCH  17  20
ENDBRANCH  12  14
ENDBRANCH   3  11
BRANCH   9  27
HETATM   27  C20   D T1504       3.024  15.586  -1.342  1.00 16.01     0.216 C 
BRANCH  27  28
HETATM   28  C27   D T1504       4.174  14.726  -1.761  1.00 17.19     0.014 A 
HETATM   29  C28   D T1504       5.467  14.992  -1.254  1.00 16.33    -0.001 A 
HETATM   30  C31   D T1504       6.541  14.178  -1.614  1.00 15.88    -0.000 A 
HETATM   31  C35   D T1504       6.315  13.103  -2.497  1.00 16.13    -0.000 A 
HETATM   32  C33   D T1504       5.040  12.838  -3.009  1.00 13.90    -0.000 A 
HETATM   33  C29   D T1504       3.975  13.650  -2.652  1.00 15.13    -0.001 A 
ENDBRANCH  27  28
BRANCH  27  34
HETATM   34  O34   D T1504       2.543  16.436  -2.385  1.00 17.91    -0.340 OA
HETATM   35  C36   D T1504       3.116  17.758  -2.389  1.00 15.51     0.175 C 
ENDBRANCH  27  34
ENDBRANCH   9  27
TORSDOF 6
ENDMDL
MODEL 7
REMARK VINA RESULT:    -8.815      4.390     10.625
REMARK INTER + INTRA:         -11.990
REMARK INTER:                 -11.904
REMARK INTRA:                  -0.086
REMARK UNBOUND:                -0.083
REMARK  6 active torsions:
REMARK  status: ('A' for Active; 'I' for Inactive)
REMARK       I    between atoms: N1_1  and  C25_25 
REMARK    1  A    between atoms: C3_3  and  N5_5 
REMARK       I    between atoms: N5_5  and  C6_6 
REMARK    2  A    between atoms: C6_6  and  C7_7 
REMARK    3  A    between atoms: N17_17  and  C24_24 
REMARK    4  A    between atoms: C25_25  and  C20_32 
REMARK    5  A    between atoms: C27_27  and  C20_32 
REMARK    6  A    between atoms: C20_32  and  O34_35 
ROOT
HETATM    1  N1    D T1504       6.671  11.838   2.301  1.00 17.57    -0.308 N 
HETATM    2  N2    D T1504       3.630  13.253   0.933  1.00 15.62    -0.149 NA
HETATM    3  C3    D T1504       5.252  13.692  -0.537  1.00 16.85     0.186 A 
HETATM    4  N4    D T1504       3.947  13.907  -0.287  1.00 16.47    -0.129 NA
HETATM    5  C13   D T1504       4.759  12.659   1.370  1.00 16.13     0.104 A 
HETATM    6  C14   D T1504       5.828  12.929   0.460  1.00 16.03     0.055 A 
HETATM    7  C15   D T1504       7.104  12.317   0.948  1.00 17.80     0.136 C 
HETATM    8  C16   D T1504       5.212  11.861   2.544  1.00 15.77     0.152 C 
HETATM    9  C25   D T1504       7.498  11.402   3.263  1.00 17.72     0.266 C 
HETATM   10  O26   D T1504       7.087  11.018   4.356  1.00 20.29    -0.269 OA
ENDROOT
BRANCH   3  11
HETATM   11  N5    D T1504       5.826  14.240  -1.663  1.00 18.99    -0.187 NA
HETATM   12  C6    D T1504       5.694  13.794  -2.901  1.00 22.32     0.281 C 
HETATM   13  O8    D T1504       5.012  12.838  -3.218  1.00 19.91    -0.265 OA
BRANCH  12  14
HETATM   14  C7    D T1504       6.413  14.523  -3.969  1.00 23.69     0.058 A 
HETATM   15  C9    D T1504       7.783  14.329  -4.060  1.00 24.20     0.006 A 
HETATM   16  C10   D T1504       8.525  14.961  -5.037  1.00 24.36     0.017 A 
HETATM   17  C24   D T1504       7.875  15.800  -5.914  1.00 26.38     0.060 A 
HETATM   18  C11   D T1504       6.484  16.003  -5.816  1.00 25.51     0.017 A 
HETATM   19  C12   D T1504       5.738  15.361  -4.844  1.00 23.62     0.006 A 
BRANCH  17  20
HETATM   20  N17   D T1504       8.625  16.444  -6.912  1.00 29.22    -0.324 N 
HETATM   21  C18   D T1504       9.123  15.811  -7.901  1.00 32.43     0.088 C 
HETATM   22  C19   D T1504      10.401  16.067  -8.219  1.00 34.59     0.066 C 
HETATM   23  N20   D T1504      11.047  17.287  -7.810  1.00 35.81    -0.247 NA
HETATM   24  C21   D T1504      10.372  17.962  -6.666  1.00 34.06     0.101 C 
HETATM   25  C23   D T1504      12.452  17.044  -7.427  1.00 33.95     0.094 C 
HETATM   26  C22   D T1504       8.852  17.888  -6.801  1.00 31.87     0.124 C 
ENDBRANCH  17  20
ENDBRANCH  12  14
ENDBRANCH   3  11
BRANCH   9  27
HETATM   27  C20   D T1504       8.973  11.398   2.999  1.00 16.01     0.216 C 
BRANCH  27  28
HETATM   28  C27   D T1504       9.657  10.932   4.243  1.00 17.19     0.014 A 
HETATM   29  C28   D T1504       9.459   9.607   4.696  1.00 16.33    -0.001 A 
HETATM   30  C31   D T1504      10.116   9.151   5.839  1.00 15.88    -0.000 A 
HETATM   31  C35   D T1504      10.964  10.036   6.535  1.00 16.13    -0.000 A 
HETATM   32  C33   D T1504      11.159  11.351   6.098  1.00 13.90    -0.000 A 
HETATM   33  C29   D T1504      10.502  11.802   4.964  1.00 15.13    -0.001 A 
ENDBRANCH  27  28
BRANCH  27  34
HETATM   34  O34   D T1504       9.228  10.565   1.865  1.00 17.91    -0.340 OA
HETATM   35  C36   D T1504      10.543  10.721   1.296  1.00 15.51     0.175 C 
ENDBRANCH  27  34
ENDBRANCH   9  27
TORSDOF 6
ENDMDL
MODEL 8
REMARK VINA RESULT:    -8.788      4.017      6.782
REMARK INTER + INTRA:         -11.954
REMARK INTER:                 -11.253
REMARK INTRA:                  -0.701
REMARK UNBOUND:                -0.083
REMARK  6 active torsions:
REMARK  status: ('A' for Active; 'I' for Inactive)
REMARK       I    between atoms: N1_1  and  C25_25 
REMARK    1  A    between atoms: C3_3  and  N5_5 
REMARK       I    between atoms: N5_5  and  C6_6 
REMARK    2  A    between atoms: C6_6  and  C7_7 
REMARK    3  A    between atoms: N17_17  and  C24_24 
REMARK    4  A    between atoms: C25_25  and  C20_32 
REMARK    5  A    between atoms: C27_27  and  C20_32 
REMARK    6  A    between atoms: C20_32  and  O34_35 
ROOT
HETATM    1  N1    D T1504       6.064  15.307  -3.514  1.00 17.57    -0.308 N 
HETATM    2  N2    D T1504       3.502  13.279  -1.952  1.00 15.62    -0.149 NA
HETATM    3  C3    D T1504       5.393  12.890  -0.830  1.00 16.85     0.186 A 
HETATM    4  N4    D T1504       4.102  12.518  -0.913  1.00 16.47    -0.129 NA
HETATM    5  C13   D T1504       4.457  14.089  -2.452  1.00 16.13     0.104 A 
HETATM    6  C14   D T1504       5.690  13.860  -1.766  1.00 16.03     0.055 A 
HETATM    7  C15   D T1504       6.778  14.717  -2.335  1.00 17.80     0.136 C 
HETATM    8  C16   D T1504       4.600  15.100  -3.537  1.00 15.77     0.152 C 
HETATM    9  C25   D T1504       6.654  15.990  -4.507  1.00 17.72     0.266 C 
HETATM   10  O26   D T1504       6.019  16.455  -5.451  1.00 20.29    -0.269 OA
ENDROOT
BRANCH   3  11
HETATM   11  N5    D T1504       6.214  12.285   0.096  1.00 18.99    -0.187 NA
HETATM   12  C6    D T1504       6.175  12.461   1.406  1.00 22.32     0.281 C 
HETATM   13  O8    D T1504       5.376  13.176   1.980  1.00 19.91    -0.265 OA
BRANCH  12  14
HETATM   14  C7    D T1504       7.164  11.724   2.224  1.00 23.69     0.058 A 
HETATM   15  C9    D T1504       8.430  11.550   1.687  1.00 24.20     0.006 A 
HETATM   16  C10   D T1504       9.413  10.886   2.391  1.00 24.36     0.017 A 
HETATM   17  C24   D T1504       9.105  10.389   3.637  1.00 26.38     0.060 A 
HETATM   18  C11   D T1504       7.816  10.559   4.179  1.00 25.51     0.017 A 
HETATM   19  C12   D T1504       6.833  11.234   3.478  1.00 23.62     0.006 A 
BRANCH  17  20
HETATM   20  N17   D T1504      10.103   9.714   4.360  1.00 29.22    -0.324 N 
HETATM   21  C18   D T1504       9.865   9.140   5.473  1.00 32.43     0.088 C 
HETATM   22  C19   D T1504      10.727   9.356   6.478  1.00 34.59     0.066 C 
HETATM   23  N20   D T1504      12.074   9.803   6.229  1.00 35.81    -0.247 NA
HETATM   24  C21   D T1504      12.252  10.433   4.891  1.00 34.06     0.101 C 
HETATM   25  C23   D T1504      12.509  10.775   7.250  1.00 33.95     0.094 C 
HETATM   26  C22   D T1504      11.466   9.682   3.818  1.00 31.87     0.124 C 
ENDBRANCH  17  20
ENDBRANCH  12  14
ENDBRANCH   3  11
BRANCH   9  27
HETATM   27  C20   D T1504       8.140  16.179  -4.468  1.00 16.01     0.216 C 
BRANCH  27  28
HETATM   28  C27   D T1504       8.597  16.483  -5.858  1.00 17.19     0.014 A 
HETATM   29  C28   D T1504       8.823  15.423  -6.768  1.00 16.33    -0.001 A 
HETATM   30  C31   D T1504       9.220  15.697  -8.076  1.00 15.88    -0.000 A 
HETATM   31  C35   D T1504       9.404  17.039  -8.466  1.00 16.13    -0.000 A 
HETATM   32  C33   D T1504       9.190  18.092  -7.571  1.00 13.90    -0.000 A 
HETATM   33  C29   D T1504       8.798  17.817  -6.270  1.00 15.13    -0.001 A 
ENDBRANCH  27  28
BRANCH  27  34
HETATM   34  O34   D T1504       8.441  17.217  -3.532  1.00 17.91    -0.340 OA
HETATM   35  C36   D T1504       9.652  17.006  -2.779  1.00 15.51     0.175 C 
ENDBRANCH  27  34
ENDBRANCH   9  27
TORSDOF 6
ENDMDL
MODEL 9
REMARK VINA RESULT:    -8.672      4.580      7.444
REMARK INTER + INTRA:         -11.797
REMARK INTER:                 -11.030
REMARK INTRA:                  -0.767
REMARK UNBOUND:                -0.083
REMARK  6 active torsions:
REMARK  status: ('A' for Active; 'I' for Inactive)
REMARK       I    between atoms: N1_1  and  C25_25 
REMARK    1  A    between atoms: C3_3  and  N5_5 
REMARK       I    between atoms: N5_5  and  C6_6 
REMARK    2  A    between atoms: C6_6  and  C7_7 
REMARK    3  A    between atoms: N17_17  and  C24_24 
REMARK    4  A    between atoms: C25_25  and  C20_32 
REMARK    5  A    between atoms: C27_27  and  C20_32 
REMARK    6  A    between atoms: C20_32  and  O34_35 
ROOT
HETATM    1  N1    D T1504       6.545  17.346  -3.993  1.00 17.57    -0.308 N 
HETATM    2  N2    D T1504       3.616  15.906  -2.423  1.00 15.62    -0.149 NA
HETATM    3  C3    D T1504       5.372  15.264  -1.202  1.00 16.85     0.186 A 
HETATM    4  N4    D T1504       4.038  15.121  -1.317  1.00 16.47    -0.129 NA
HETATM    5  C13   D T1504       4.714  16.501  -2.929  1.00 16.13     0.104 A 
HETATM    6  C14   D T1504       5.865  16.104  -2.181  1.00 16.03     0.055 A 
HETATM    7  C15   D T1504       7.106  16.717  -2.753  1.00 17.80     0.136 C 
HETATM    8  C16   D T1504       5.069  17.398  -4.065  1.00 15.77     0.152 C 
HETATM    9  C25   D T1504       7.277  17.848  -4.999  1.00 17.72     0.266 C 
HETATM   10  O26   D T1504       6.764  18.355  -5.994  1.00 20.29    -0.269 OA
ENDROOT
BRANCH   3  11
HETATM   11  N5    D T1504       6.043  14.586  -0.209  1.00 18.99    -0.187 NA
HETATM   12  C6    D T1504       6.328  13.294  -0.203  1.00 22.32     0.281 C 
HETATM   13  O8    D T1504       6.054  12.525  -1.105  1.00 19.91    -0.265 OA
BRANCH  12  14
HETATM   14  C7    D T1504       7.044  12.759   0.976  1.00 23.69     0.058 A 
HETATM   15  C9    D T1504       8.428  12.844   0.973  1.00 24.20     0.006 A 
HETATM   16  C10   D T1504       9.169  12.380   2.040  1.00 24.36     0.017 A 
HETATM   17  C24   D T1504       8.503  11.819   3.107  1.00 26.38     0.060 A 
HETATM   18  C11   D T1504       7.097  11.726   3.106  1.00 25.51     0.017 A 
HETATM   19  C12   D T1504       6.353  12.200   2.041  1.00 23.62     0.006 A 
BRANCH  17  20
HETATM   20  N17   D T1504       9.252  11.348   4.197  1.00 29.22    -0.324 N 
HETATM   21  C18   D T1504      10.326  11.920   4.581  1.00 32.43     0.088 C 
HETATM   22  C19   D T1504      11.386  11.139   4.835  1.00 34.59     0.066 C 
HETATM   23  N20   D T1504      11.234   9.737   5.125  1.00 35.81    -0.247 NA
HETATM   24  C21   D T1504       9.936   9.172   4.660  1.00 34.06     0.101 C 
HETATM   25  C23   D T1504      12.319   8.946   4.510  1.00 33.95     0.094 C 
HETATM   26  C22   D T1504       8.790  10.151   4.906  1.00 31.87     0.124 C 
ENDBRANCH  17  20
ENDBRANCH  12  14
ENDBRANCH   3  11
BRANCH   9  27
HETATM   27  C20   D T1504       8.771  17.774  -4.909  1.00 16.01     0.216 C 
BRANCH  27  28
HETATM   28  C27   D T1504       9.273  17.163  -6.178  1.00 17.19     0.014 A 
HETATM   29  C28   D T1504       8.706  15.954  -6.644  1.00 16.33    -0.001 A 
HETATM   30  C31   D T1504       9.145  15.390  -7.842  1.00 15.88    -0.000 A 
HETATM   31  C35   D T1504      10.168  16.038  -8.564  1.00 16.13    -0.000 A 
HETATM   32  C33   D T1504      10.740  17.230  -8.106  1.00 13.90    -0.000 A 
HETATM   33  C29   D T1504      10.303  17.786  -6.914  1.00 15.13    -0.001 A 
ENDBRANCH  27  28
BRANCH  27  34
HETATM   34  O34   D T1504       9.277  19.090  -4.675  1.00 17.91    -0.340 OA
HETATM   35  C36   D T1504      10.459  19.136  -3.852  1.00 15.51     0.175 C 
ENDBRANCH  27  34
ENDBRANCH   9  27
TORSDOF 6
ENDMDL
