MODEL 1
REMARK VINA RESULT:    -9.396      0.000      0.000
REMARK INTER + INTRA:         -15.844
REMARK INTER:                 -14.888
REMARK INTRA:                  -0.956
REMARK UNBOUND:                -0.956
REMARK  10 active torsions:
REMARK  status: ('A' for Active; 'I' for Inactive)
REMARK    1  A    between atoms: NBL_6  and  CAS_7 
REMARK    2  A    between atoms: CAS_7  and  CAO_8 
REMARK    3  A    between atoms: CAO_8  and  CAP_9 
REMARK    4  A    between atoms: CAP_9  and  OBB_10 
REMARK    5  A    between atoms: OBB_10  and  CBH_11 
REMARK    6  A    between atoms: CBG_13  and  OAZ_14 
REMARK    7  A    between atoms: C6_22  and  NAY_23 
REMARK    8  A    between atoms: NAY_23  and  CBE_24 
REMARK    9  A    between atoms: CBD_29  and  NAX_30 
REMARK       I    between atoms: NAX_30  and  CBC_31 
REMARK   10  A    between atoms: CBC_31  and  CBF_33 
ROOT
HETATM    1  CBH   D T1356      -5.036  -2.272  10.225  1.00 30.53     0.118 A 
HETATM    2  CAM   D T1356      -5.667  -1.397   9.334  1.00 29.88     0.045 A 
HETATM    3  CBG   D T1356      -3.849  -1.866  10.867  1.00 30.48     0.117 A 
HETATM    4  CAN   D T1356      -3.298  -0.611  10.612  1.00 29.67     0.031 A 
HETATM    5  C5    D T1356      -3.927   0.269   9.724  1.00 29.79     0.056 A 
HETATM    6  C4    D T1356      -5.115  -0.134   9.089  1.00 29.99     0.088 A 
HETATM    7  N3    D T1356      -5.733   0.696   8.232  1.00 29.16    -0.224 NA
HETATM    8  C2    D T1356      -5.206   1.964   7.963  1.00 30.02     0.200 A 
HETATM    9  N1    D T1356      -4.023   2.371   8.602  1.00 29.74    -0.205 NA
HETATM   10  C6    D T1356      -3.398   1.543   9.459  1.00 29.94     0.166 A 
ENDROOT
BRANCH  10  11
HETATM   11  NAY   D T1356      -2.245   1.884  10.091  1.00 31.31    -0.227 NA
BRANCH  11  12
HETATM   12  CBE   D T1356      -1.139   1.096   9.998  1.00 32.67     0.083 A 
HETATM   13  CAK   D T1356      -0.655   0.739   8.738  1.00 33.73     0.021 A 
HETATM   14  CAI   D T1356       0.483  -0.062   8.608  1.00 34.14     0.021 A 
HETATM   15  CBD   D T1356       1.176  -0.506   9.743  1.00 33.99     0.085 A 
HETATM   16  CAH   D T1356       0.692  -0.153  11.002  1.00 33.61     0.021 A 
HETATM   17  CAJ   D T1356      -0.446   0.646  11.127  1.00 33.42     0.021 A 
BRANCH  15  18
HETATM   18  NAX   D T1356       2.268  -1.305   9.674  1.00 34.41    -0.208 NA
HETATM   19  CBC   D T1356       2.164  -2.652   9.565  1.00 37.04     0.279 C 
HETATM   20  OAB   D T1356       1.101  -3.278   9.503  1.00 38.15    -0.265 OA
BRANCH  19  21
HETATM   21  CBF   D T1356       3.386  -3.329   9.528  1.00 37.03     0.058 A 
HETATM   22  CAF   D T1356       3.432  -4.666   9.125  1.00 38.06     0.005 A 
HETATM   23  CAD   D T1356       4.646  -5.346   9.094  1.00 38.28     0.000 A 
HETATM   24  CAC   D T1356       5.821  -4.697   9.471  1.00 38.02     0.000 A 
HETATM   25  CAE   D T1356       5.780  -3.363   9.868  1.00 37.90     0.000 A 
HETATM   26  CAG   D T1356       4.564  -2.685   9.905  1.00 37.23     0.005 A 
ENDBRANCH  19  21
ENDBRANCH  15  18
ENDBRANCH  11  12
ENDBRANCH  10  11
BRANCH   3  27
HETATM   27  OAZ   D T1356      -3.216  -2.735  11.726  1.00 30.66    -0.326 OA
HETATM   28  CAA   D T1356      -1.807  -2.902  11.551  1.00 33.36     0.181 C 
ENDBRANCH   3  27
BRANCH   1  29
HETATM   29  OBB   D T1356      -5.504  -3.528  10.526  1.00 30.55    -0.329 OA
BRANCH  29  30
HETATM   30  CAP   D T1356      -5.545  -4.535   9.489  1.00 33.72     0.151 C 
BRANCH  30  31
HETATM   31  CAO   D T1356      -4.316  -5.453   9.628  1.00 37.07     0.068 C 
BRANCH  31  32
HETATM   32  CAS   D T1356      -4.157  -5.845  11.104  1.00 39.71     0.253 C 
BRANCH  32  33
HETATM   33  NBL   D T1356      -3.168  -6.899  11.439  1.00 41.70     0.142 N 
HETATM   34  CAT   D T1356      -2.480  -7.504  10.275  1.00 43.12     0.282 C 
HETATM   35  CAQ   D T1356      -1.388  -8.482  10.756  1.00 43.52     0.178 C 
HETATM   36  OBA   D T1356      -1.294  -8.456  12.224  1.00 44.22    -0.350 OA
HETATM   37  CAR   D T1356      -2.555  -8.794  12.898  1.00 43.52     0.178 C 
HETATM   38  CAU   D T1356      -3.714  -7.960  12.315  1.00 42.73     0.282 C 
ENDBRANCH  32  33
ENDBRANCH  31  32
ENDBRANCH  30  31
ENDBRANCH  29  30
ENDBRANCH   1  29
TORSDOF 10
ENDMDL
MODEL 2
REMARK VINA RESULT:    -9.035      1.416      2.061
REMARK INTER + INTRA:         -15.273
REMARK INTER:                 -13.807
REMARK INTRA:                  -1.465
REMARK UNBOUND:                -0.956
REMARK  10 active torsions:
REMARK  status: ('A' for Active; 'I' for Inactive)
REMARK    1  A    between atoms: NBL_6  and  CAS_7 
REMARK    2  A    between atoms: CAS_7  and  CAO_8 
REMARK    3  A    between atoms: CAO_8  and  CAP_9 
REMARK    4  A    between atoms: CAP_9  and  OBB_10 
REMARK    5  A    between atoms: OBB_10  and  CBH_11 
REMARK    6  A    between atoms: CBG_13  and  OAZ_14 
REMARK    7  A    between atoms: C6_22  and  NAY_23 
REMARK    8  A    between atoms: NAY_23  and  CBE_24 
REMARK    9  A    between atoms: CBD_29  and  NAX_30 
REMARK       I    between atoms: NAX_30  and  CBC_31 
REMARK   10  A    between atoms: CBC_31  and  CBF_33 
ROOT
HETATM    1  CBH   D T1356      -5.080  -2.628  10.224  1.00 30.53     0.118 A 
HETATM    2  CAM   D T1356      -5.618  -1.789   9.243  1.00 29.88     0.045 A 
HETATM    3  CBG   D T1356      -4.057  -2.142  11.063  1.00 30.48     0.117 A 
HETATM    4  CAN   D T1356      -3.575  -0.842  10.915  1.00 29.67     0.031 A 
HETATM    5  C5    D T1356      -4.114   0.003   9.937  1.00 29.79     0.056 A 
HETATM    6  C4    D T1356      -5.138  -0.480   9.105  1.00 29.99     0.088 A 
HETATM    7  N3    D T1356      -5.667   0.315   8.160  1.00 29.16    -0.224 NA
HETATM    8  C2    D T1356      -5.207   1.626   7.993  1.00 30.02     0.200 A 
HETATM    9  N1    D T1356      -4.188   2.113   8.828  1.00 29.74    -0.205 NA
HETATM   10  C6    D T1356      -3.654   1.320   9.775  1.00 29.94     0.166 A 
ENDROOT
BRANCH  10  11
HETATM   11  NAY   D T1356      -2.657   1.740  10.598  1.00 31.31    -0.227 NA
BRANCH  11  12
HETATM   12  CBE   D T1356      -1.355   1.465  10.313  1.00 32.67     0.083 A 
HETATM   13  CAK   D T1356      -0.430   1.374  11.354  1.00 33.73     0.021 A 
HETATM   14  CAI   D T1356       0.914   1.085  11.097  1.00 34.14     0.021 A 
HETATM   15  CBD   D T1356       1.356   0.859   9.785  1.00 33.99     0.085 A 
HETATM   16  CAH   D T1356       0.433   0.953   8.744  1.00 33.61     0.021 A 
HETATM   17  CAJ   D T1356      -0.907   1.243   9.006  1.00 33.42     0.021 A 
BRANCH  15  18
HETATM   18  NAX   D T1356       2.650   0.602   9.478  1.00 34.41    -0.208 NA
HETATM   19  CBC   D T1356       3.128  -0.663   9.395  1.00 37.04     0.279 C 
HETATM   20  OAB   D T1356       2.458  -1.686   9.567  1.00 38.15    -0.265 OA
BRANCH  19  21
HETATM   21  CBF   D T1356       4.489  -0.752   9.091  1.00 37.03     0.058 A 
HETATM   22  CAF   D T1356       5.070   0.164   8.211  1.00 38.06     0.005 A 
HETATM   23  CAD   D T1356       6.424   0.074   7.900  1.00 38.28     0.000 A 
HETATM   24  CAC   D T1356       7.205  -0.935   8.461  1.00 38.02     0.000 A 
HETATM   25  CAE   D T1356       6.631  -1.847   9.343  1.00 37.90     0.000 A 
HETATM   26  CAG   D T1356       5.275  -1.761   9.649  1.00 37.23     0.005 A 
ENDBRANCH  19  21
ENDBRANCH  15  18
ENDBRANCH  11  12
ENDBRANCH  10  11
BRANCH   3  27
HETATM   27  OAZ   D T1356      -3.511  -2.975  12.013  1.00 30.66    -0.326 OA
HETATM   28  CAA   D T1356      -2.084  -3.015  12.089  1.00 33.36     0.181 C 
ENDBRANCH   3  27
BRANCH   1  29
HETATM   29  OBB   D T1356      -5.487  -3.924  10.431  1.00 30.55    -0.329 OA
BRANCH  29  30
HETATM   30  CAP   D T1356      -5.171  -4.932   9.445  1.00 33.72     0.151 C 
BRANCH  30  31
HETATM   31  CAO   D T1356      -3.894  -5.677   9.876  1.00 37.07     0.068 C 
BRANCH  31  32
HETATM   32  CAS   D T1356      -4.141  -6.332  11.242  1.00 39.71     0.253 C 
BRANCH  32  33
HETATM   33  NBL   D T1356      -3.187  -7.374  11.696  1.00 41.70     0.142 N 
HETATM   34  CAT   D T1356      -3.724  -8.319  12.701  1.00 43.12     0.282 C 
HETATM   35  CAQ   D T1356      -2.690  -9.427  12.991  1.00 43.52     0.178 C 
HETATM   36  OBA   D T1356      -1.517  -9.268  12.117  1.00 44.22    -0.350 OA
HETATM   37  CAR   D T1356      -0.857  -7.963  12.256  1.00 43.52     0.178 C 
HETATM   38  CAU   D T1356      -1.891  -6.824  12.154  1.00 42.73     0.282 C 
ENDBRANCH  32  33
ENDBRANCH  31  32
ENDBRANCH  30  31
ENDBRANCH  29  30
ENDBRANCH   1  29
TORSDOF 10
ENDMDL
MODEL 3
REMARK VINA RESULT:    -9.033      2.331      5.794
REMARK INTER + INTRA:         -15.270
REMARK INTER:                 -13.607
REMARK INTRA:                  -1.663
REMARK UNBOUND:                -0.956
REMARK  10 active torsions:
REMARK  status: ('A' for Active; 'I' for Inactive)
REMARK    1  A    between atoms: NBL_6  and  CAS_7 
REMARK    2  A    between atoms: CAS_7  and  CAO_8 
REMARK    3  A    between atoms: CAO_8  and  CAP_9 
REMARK    4  A    between atoms: CAP_9  and  OBB_10 
REMARK    5  A    between atoms: OBB_10  and  CBH_11 
REMARK    6  A    between atoms: CBG_13  and  OAZ_14 
REMARK    7  A    between atoms: C6_22  and  NAY_23 
REMARK    8  A    between atoms: NAY_23  and  CBE_24 
REMARK    9  A    between atoms: CBD_29  and  NAX_30 
REMARK       I    between atoms: NAX_30  and  CBC_31 
REMARK   10  A    between atoms: CBC_31  and  CBF_33 
ROOT
HETATM    1  CBH   D T1356      -5.503  -0.523   9.608  1.00 30.53     0.118 A 
HETATM    2  CAM   D T1356      -5.850  -1.734   9.000  1.00 29.88     0.045 A 
HETATM    3  CBG   D T1356      -4.592  -0.527  10.684  1.00 30.48     0.117 A 
HETATM    4  CAN   D T1356      -4.047  -1.723  11.148  1.00 29.67     0.031 A 
HETATM    5  C5    D T1356      -4.388  -2.936  10.541  1.00 29.79     0.056 A 
HETATM    6  C4    D T1356      -5.292  -2.932   9.464  1.00 29.99     0.088 A 
HETATM    7  N3    D T1356      -5.633  -4.087   8.869  1.00 29.16    -0.224 NA
HETATM    8  C2    D T1356      -5.096  -5.302   9.310  1.00 30.02     0.200 A 
HETATM    9  N1    D T1356      -4.188  -5.308  10.381  1.00 29.74    -0.205 NA
HETATM   10  C6    D T1356      -3.844  -4.154  10.983  1.00 29.94     0.166 A 
ENDROOT
BRANCH  10  11
HETATM   11  NAY   D T1356      -2.982  -4.109  12.031  1.00 31.31    -0.227 NA
BRANCH  11  12
HETATM   12  CBE   D T1356      -1.636  -4.080  11.827  1.00 32.67     0.083 A 
HETATM   13  CAK   D T1356      -0.943  -2.880  11.993  1.00 33.73     0.021 A 
HETATM   14  CAI   D T1356       0.440  -2.818  11.799  1.00 34.14     0.021 A 
HETATM   15  CBD   D T1356       1.164  -3.968  11.454  1.00 33.99     0.085 A 
HETATM   16  CAH   D T1356       0.473  -5.167  11.286  1.00 33.61     0.021 A 
HETATM   17  CAJ   D T1356      -0.909  -5.224  11.478  1.00 33.42     0.021 A 
BRANCH  15  18
HETATM   18  NAX   D T1356       2.500  -3.958  11.230  1.00 34.41    -0.208 NA
HETATM   19  CBC   D T1356       3.016  -3.816   9.984  1.00 37.04     0.279 C 
HETATM   20  OAB   D T1356       2.350  -3.668   8.955  1.00 38.15    -0.265 OA
BRANCH  19  21
HETATM   21  CBF   D T1356       4.412  -3.849   9.925  1.00 37.03     0.058 A 
HETATM   22  CAF   D T1356       5.135  -2.659   9.814  1.00 38.06     0.005 A 
HETATM   23  CAD   D T1356       6.525  -2.689   9.747  1.00 38.28     0.000 A 
HETATM   24  CAC   D T1356       7.201  -3.908   9.784  1.00 38.02     0.000 A 
HETATM   25  CAE   D T1356       6.484  -5.094   9.901  1.00 37.90     0.000 A 
HETATM   26  CAG   D T1356       5.093  -5.065   9.961  1.00 37.23     0.005 A 
ENDBRANCH  19  21
ENDBRANCH  15  18
ENDBRANCH  11  12
ENDBRANCH  10  11
BRANCH   3  27
HETATM   27  OAZ   D T1356      -4.268   0.662  11.297  1.00 30.66    -0.326 OA
HETATM   28  CAA   D T1356      -5.160   1.126  12.313  1.00 33.36     0.181 C 
ENDBRANCH   3  27
BRANCH   1  29
HETATM   29  OBB   D T1356      -5.999   0.698   9.221  1.00 30.55    -0.329 OA
BRANCH  29  30
HETATM   30  CAP   D T1356      -5.497   1.316   8.015  1.00 33.72     0.151 C 
BRANCH  30  31
HETATM   31  CAO   D T1356      -4.235   2.133   8.354  1.00 37.07     0.068 C 
BRANCH  31  32
HETATM   32  CAS   D T1356      -2.996   1.296   8.005  1.00 39.71     0.253 C 
BRANCH  32  33
HETATM   33  NBL   D T1356      -1.764   1.514   8.802  1.00 41.70     0.142 N 
HETATM   34  CAT   D T1356      -1.278   0.325   9.539  1.00 43.12     0.282 C 
HETATM   35  CAQ   D T1356       0.073   0.639  10.216  1.00 43.52     0.178 C 
HETATM   36  OBA   D T1356       0.520   1.993   9.855  1.00 44.22    -0.350 OA
HETATM   37  CAR   D T1356      -0.442   3.043  10.219  1.00 43.52     0.178 C 
HETATM   38  CAU   D T1356      -1.853   2.677   9.713  1.00 42.73     0.282 C 
ENDBRANCH  32  33
ENDBRANCH  31  32
ENDBRANCH  30  31
ENDBRANCH  29  30
ENDBRANCH   1  29
TORSDOF 10
ENDMDL
MODEL 4
REMARK VINA RESULT:    -8.911      2.546      3.337
REMARK INTER + INTRA:         -15.075
REMARK INTER:                 -13.783
REMARK INTRA:                  -1.292
REMARK UNBOUND:                -0.956
REMARK  10 active torsions:
REMARK  status: ('A' for Active; 'I' for Inactive)
REMARK    1  A    between atoms: NBL_6  and  CAS_7 
REMARK    2  A    between atoms: CAS_7  and  CAO_8 
REMARK    3  A    between atoms: CAO_8  and  CAP_9 
REMARK    4  A    between atoms: CAP_9  and  OBB_10 
REMARK    5  A    between atoms: OBB_10  and  CBH_11 
REMARK    6  A    between atoms: CBG_13  and  OAZ_14 
REMARK    7  A    between atoms: C6_22  and  NAY_23 
REMARK    8  A    between atoms: NAY_23  and  CBE_24 
REMARK    9  A    between atoms: CBD_29  and  NAX_30 
REMARK       I    between atoms: NAX_30  and  CBC_31 
REMARK   10  A    between atoms: CBC_31  and  CBF_33 
ROOT
HETATM    1  CBH   D T1356      -4.052  -4.622  10.613  1.00 30.53     0.118 A 
HETATM    2  CAM   D T1356      -4.947  -3.958   9.767  1.00 29.88     0.045 A 
HETATM    3  CBG   D T1356      -3.106  -3.873  11.342  1.00 30.48     0.117 A 
HETATM    4  CAN   D T1356      -3.053  -2.486  11.220  1.00 29.67     0.031 A 
HETATM    5  C5    D T1356      -3.949  -1.817  10.378  1.00 29.79     0.056 A 
HETATM    6  C4    D T1356      -4.896  -2.563   9.656  1.00 29.99     0.088 A 
HETATM    7  N3    D T1356      -5.764  -1.940   8.842  1.00 29.16    -0.224 NA
HETATM    8  C2    D T1356      -5.737  -0.547   8.704  1.00 30.02     0.200 A 
HETATM    9  N1    D T1356      -4.797   0.201   9.431  1.00 29.74    -0.205 NA
HETATM   10  C6    D T1356      -3.924  -0.418  10.246  1.00 29.94     0.166 A 
ENDROOT
BRANCH  10  11
HETATM   11  NAY   D T1356      -2.986   0.259  10.958  1.00 31.31    -0.227 NA
BRANCH  11  12
HETATM   12  CBE   D T1356      -1.687   0.288  10.552  1.00 32.67     0.083 A 
HETATM   13  CAK   D T1356      -1.383   0.712   9.257  1.00 33.73     0.021 A 
HETATM   14  CAI   D T1356      -0.059   0.761   8.812  1.00 34.14     0.021 A 
HETATM   15  CBD   D T1356       0.995   0.406   9.667  1.00 33.99     0.085 A 
HETATM   16  CAH   D T1356       0.692  -0.019  10.959  1.00 33.61     0.021 A 
HETATM   17  CAJ   D T1356      -0.632  -0.069  11.399  1.00 33.42     0.021 A 
BRANCH  15  18
HETATM   18  NAX   D T1356       2.293   0.411   9.277  1.00 34.41    -0.208 NA
HETATM   19  CBC   D T1356       3.064   1.522   9.370  1.00 37.04     0.279 C 
HETATM   20  OAB   D T1356       2.688   2.609   9.818  1.00 38.15    -0.265 OA
BRANCH  19  21
HETATM   21  CBF   D T1356       4.372   1.363   8.905  1.00 37.03     0.058 A 
HETATM   22  CAF   D T1356       5.248   2.451   8.898  1.00 38.06     0.005 A 
HETATM   23  CAD   D T1356       6.549   2.298   8.428  1.00 38.28     0.000 A 
HETATM   24  CAC   D T1356       6.982   1.059   7.956  1.00 38.02     0.000 A 
HETATM   25  CAE   D T1356       6.113  -0.029   7.968  1.00 37.90     0.000 A 
HETATM   26  CAG   D T1356       4.809   0.126   8.431  1.00 37.23     0.005 A 
ENDBRANCH  19  21
ENDBRANCH  15  18
ENDBRANCH  11  12
ENDBRANCH  10  11
BRANCH   3  27
HETATM   27  OAZ   D T1356      -2.210  -4.528  12.156  1.00 30.66    -0.326 OA
HETATM   28  CAA   D T1356      -0.845  -4.539  11.732  1.00 33.36     0.181 C 
ENDBRANCH   3  27
BRANCH   1  29
HETATM   29  OBB   D T1356      -4.028  -5.985  10.785  1.00 30.55    -0.329 OA
BRANCH  29  30
HETATM   30  CAP   D T1356      -3.291  -6.804   9.849  1.00 33.72     0.151 C 
BRANCH  30  31
HETATM   31  CAO   D T1356      -2.492  -7.866  10.628  1.00 37.07     0.068 C 
BRANCH  31  32
HETATM   32  CAS   D T1356      -3.064  -7.972  12.049  1.00 39.71     0.253 C 
BRANCH  32  33
HETATM   33  NBL   D T1356      -2.189  -8.529  13.109  1.00 41.70     0.142 N 
HETATM   34  CAT   D T1356      -0.746  -8.560  12.777  1.00 43.12     0.282 C 
HETATM   35  CAQ   D T1356       0.069  -9.031  14.000  1.00 43.52     0.178 C 
HETATM   36  OBA   D T1356      -0.819  -9.222  15.158  1.00 44.22    -0.350 OA
HETATM   37  CAR   D T1356      -1.899 -10.187  14.914  1.00 43.52     0.178 C 
HETATM   38  CAU   D T1356      -2.628  -9.856  13.596  1.00 42.73     0.282 C 
ENDBRANCH  32  33
ENDBRANCH  31  32
ENDBRANCH  30  31
ENDBRANCH  29  30
ENDBRANCH   1  29
TORSDOF 10
ENDMDL
MODEL 5
REMARK VINA RESULT:    -8.898      3.060      9.208
REMARK INTER + INTRA:         -15.055
REMARK INTER:                 -13.419
REMARK INTRA:                  -1.636
REMARK UNBOUND:                -0.956
REMARK  10 active torsions:
REMARK  status: ('A' for Active; 'I' for Inactive)
REMARK    1  A    between atoms: NBL_6  and  CAS_7 
REMARK    2  A    between atoms: CAS_7  and  CAO_8 
REMARK    3  A    between atoms: CAO_8  and  CAP_9 
REMARK    4  A    between atoms: CAP_9  and  OBB_10 
REMARK    5  A    between atoms: OBB_10  and  CBH_11 
REMARK    6  A    between atoms: CBG_13  and  OAZ_14 
REMARK    7  A    between atoms: C6_22  and  NAY_23 
REMARK    8  A    between atoms: NAY_23  and  CBE_24 
REMARK    9  A    between atoms: CBD_29  and  NAX_30 
REMARK       I    between atoms: NAX_30  and  CBC_31 
REMARK   10  A    between atoms: CBC_31  and  CBF_33 
ROOT
HETATM    1  CBH   D T1356      -4.398  -2.064  10.920  1.00 30.53     0.118 A 
HETATM    2  CAM   D T1356      -3.113  -1.770  11.391  1.00 29.88     0.045 A 
HETATM    3  CBG   D T1356      -4.710  -3.386  10.543  1.00 30.48     0.117 A 
HETATM    4  CAN   D T1356      -3.750  -4.393  10.628  1.00 29.67     0.031 A 
HETATM    5  C5    D T1356      -2.465  -4.105  11.102  1.00 29.79     0.056 A 
HETATM    6  C4    D T1356      -2.156  -2.789  11.483  1.00 29.99     0.088 A 
HETATM    7  N3    D T1356      -0.927  -2.492  11.940  1.00 29.16    -0.224 NA
HETATM    8  C2    D T1356       0.054  -3.485  12.041  1.00 30.02     0.200 A 
HETATM    9  N1    D T1356      -0.255  -4.803  11.667  1.00 29.74    -0.205 NA
HETATM   10  C6    D T1356      -1.483  -5.105  11.207  1.00 29.94     0.166 A 
ENDROOT
BRANCH  10  11
HETATM   11  NAY   D T1356      -1.826  -6.361  10.820  1.00 31.31    -0.227 NA
BRANCH  11  12
HETATM   12  CBE   D T1356      -2.013  -7.348  11.739  1.00 32.67     0.083 A 
HETATM   13  CAK   D T1356      -3.302  -7.830  11.974  1.00 33.73     0.021 A 
HETATM   14  CAI   D T1356      -3.527  -8.849  12.905  1.00 34.14     0.021 A 
HETATM   15  CBD   D T1356      -2.457  -9.424  13.606  1.00 33.99     0.085 A 
HETATM   16  CAH   D T1356      -1.170  -8.941  13.373  1.00 33.61     0.021 A 
HETATM   17  CAJ   D T1356      -0.950  -7.922  12.444  1.00 33.42     0.021 A 
BRANCH  15  18
HETATM   18  NAX   D T1356      -2.623 -10.395  14.536  1.00 34.41    -0.208 NA
HETATM   19  CBC   D T1356      -2.411 -11.703  14.251  1.00 37.04     0.279 C 
HETATM   20  OAB   D T1356      -2.040 -12.138  13.157  1.00 38.15    -0.265 OA
BRANCH  19  21
HETATM   21  CBF   D T1356      -2.648 -12.576  15.316  1.00 37.03     0.058 A 
HETATM   22  CAF   D T1356      -1.970 -12.405  16.525  1.00 38.06     0.005 A 
HETATM   23  CAD   D T1356      -2.198 -13.277  17.586  1.00 38.28     0.000 A 
HETATM   24  CAC   D T1356      -3.101 -14.330  17.444  1.00 38.02     0.000 A 
HETATM   25  CAE   D T1356      -3.784 -14.500  16.243  1.00 37.90     0.000 A 
HETATM   26  CAG   D T1356      -3.550 -13.631  15.179  1.00 37.23     0.005 A 
ENDBRANCH  19  21
ENDBRANCH  15  18
ENDBRANCH  11  12
ENDBRANCH  10  11
BRANCH   3  27
HETATM   27  OAZ   D T1356      -5.966  -3.670  10.059  1.00 30.66    -0.326 OA
HETATM   28  CAA   D T1356      -6.099  -3.774   8.639  1.00 33.36     0.181 C 
ENDBRANCH   3  27
BRANCH   1  29
HETATM   29  OBB   D T1356      -5.399  -1.132  10.795  1.00 30.55    -0.329 OA
BRANCH  29  30
HETATM   30  CAP   D T1356      -5.154   0.230  11.215  1.00 33.72     0.151 C 
BRANCH  30  31
HETATM   31  CAO   D T1356      -5.098   1.139   9.973  1.00 37.07     0.068 C 
BRANCH  31  32
HETATM   32  CAS   D T1356      -3.909   2.099  10.117  1.00 39.71     0.253 C 
BRANCH  32  33
HETATM   33  NBL   D T1356      -2.542   1.522  10.083  1.00 41.70     0.142 N 
HETATM   34  CAT   D T1356      -1.714   1.807  11.277  1.00 43.12     0.282 C 
HETATM   35  CAQ   D T1356      -0.374   1.047  11.184  1.00 43.52     0.178 C 
HETATM   36  OBA   D T1356      -0.355   0.195   9.984  1.00 44.22    -0.350 OA
HETATM   37  CAR   D T1356      -0.558   0.941   8.735  1.00 43.52     0.178 C 
HETATM   38  CAU   D T1356      -1.793   1.857   8.851  1.00 42.73     0.282 C 
ENDBRANCH  32  33
ENDBRANCH  31  32
ENDBRANCH  30  31
ENDBRANCH  29  30
ENDBRANCH   1  29
TORSDOF 10
ENDMDL
MODEL 6
REMARK VINA RESULT:    -8.875      3.120      4.089
REMARK INTER + INTRA:         -15.020
REMARK INTER:                 -13.641
REMARK INTRA:                  -1.379
REMARK UNBOUND:                -0.956
REMARK  10 active torsions:
REMARK  status: ('A' for Active; 'I' for Inactive)
REMARK    1  A    between atoms: NBL_6  and  CAS_7 
REMARK    2  A    between atoms: CAS_7  and  CAO_8 
REMARK    3  A    between atoms: CAO_8  and  CAP_9 
REMARK    4  A    between atoms: CAP_9  and  OBB_10 
REMARK    5  A    between atoms: OBB_10  and  CBH_11 
REMARK    6  A    between atoms: CBG_13  and  OAZ_14 
REMARK    7  A    between atoms: C6_22  and  NAY_23 
REMARK    8  A    between atoms: NAY_23  and  CBE_24 
REMARK    9  A    between atoms: CBD_29  and  NAX_30 
REMARK       I    between atoms: NAX_30  and  CBC_31 
REMARK   10  A    between atoms: CBC_31  and  CBF_33 
ROOT
HETATM    1  CBH   D T1356      -4.400  -4.278  10.376  1.00 30.53     0.118 A 
HETATM    2  CAM   D T1356      -5.173  -3.532   9.480  1.00 29.88     0.045 A 
HETATM    3  CBG   D T1356      -3.565  -3.607  11.292  1.00 30.48     0.117 A 
HETATM    4  CAN   D T1356      -3.498  -2.215  11.304  1.00 29.67     0.031 A 
HETATM    5  C5    D T1356      -4.273  -1.464  10.412  1.00 29.79     0.056 A 
HETATM    6  C4    D T1356      -5.110  -2.133   9.502  1.00 29.99     0.088 A 
HETATM    7  N3    D T1356      -5.860  -1.430   8.637  1.00 29.16    -0.224 NA
HETATM    8  C2    D T1356      -5.818  -0.031   8.631  1.00 30.02     0.200 A 
HETATM    9  N1    D T1356      -4.988   0.639   9.543  1.00 29.74    -0.205 NA
HETATM   10  C6    D T1356      -4.233  -0.060  10.411  1.00 29.94     0.166 A 
ENDROOT
BRANCH  10  11
HETATM   11  NAY   D T1356      -3.403   0.542  11.302  1.00 31.31    -0.227 NA
BRANCH  11  12
HETATM   12  CBE   D T1356      -2.168   0.974  10.926  1.00 32.67     0.083 A 
HETATM   13  CAK   D T1356      -1.048   0.198  11.230  1.00 33.73     0.021 A 
HETATM   14  CAI   D T1356       0.233   0.609  10.851  1.00 34.14     0.021 A 
HETATM   15  CBD   D T1356       0.417   1.801  10.135  1.00 33.99     0.085 A 
HETATM   16  CAH   D T1356      -0.701   2.577   9.833  1.00 33.61     0.021 A 
HETATM   17  CAJ   D T1356      -1.978   2.164  10.216  1.00 33.42     0.021 A 
BRANCH  15  18
HETATM   18  NAX   D T1356       1.638   2.257   9.766  1.00 34.41    -0.208 NA
HETATM   19  CBC   D T1356       2.389   3.034  10.584  1.00 37.04     0.279 C 
HETATM   20  OAB   D T1356       2.063   3.387  11.722  1.00 38.15    -0.265 OA
BRANCH  19  21
HETATM   21  CBF   D T1356       3.612   3.438  10.042  1.00 37.03     0.058 A 
HETATM   22  CAF   D T1356       4.049   2.902   8.828  1.00 38.06     0.005 A 
HETATM   23  CAD   D T1356       5.270   3.295   8.288  1.00 38.28     0.000 A 
HETATM   24  CAC   D T1356       6.066   4.222   8.961  1.00 38.02     0.000 A 
HETATM   25  CAE   D T1356       5.632   4.762  10.168  1.00 37.90     0.000 A 
HETATM   26  CAG   D T1356       4.413   4.363  10.711  1.00 37.23     0.005 A 
ENDBRANCH  19  21
ENDBRANCH  15  18
ENDBRANCH  11  12
ENDBRANCH  10  11
BRANCH   3  27
HETATM   27  OAZ   D T1356      -2.787  -4.342  12.158  1.00 30.66    -0.326 OA
HETATM   28  CAA   D T1356      -1.426  -3.931  12.305  1.00 33.36     0.181 C 
ENDBRANCH   3  27
BRANCH   1  29
HETATM   29  OBB   D T1356      -4.397  -5.651  10.426  1.00 30.55    -0.329 OA
BRANCH  29  30
HETATM   30  CAP   D T1356      -3.660  -6.394   9.428  1.00 33.72     0.151 C 
BRANCH  30  31
HETATM   31  CAO   D T1356      -2.659  -7.329  10.133  1.00 37.07     0.068 C 
BRANCH  31  32
HETATM   32  CAS   D T1356      -3.258  -7.774  11.475  1.00 39.71     0.253 C 
BRANCH  32  33
HETATM   33  NBL   D T1356      -2.463  -8.703  12.315  1.00 41.70     0.142 N 
HETATM   34  CAT   D T1356      -3.242  -9.454  13.326  1.00 43.12     0.282 C 
HETATM   35  CAQ   D T1356      -2.334 -10.477  14.040  1.00 43.52     0.178 C 
HETATM   36  OBA   D T1356      -0.990 -10.467  13.444  1.00 44.22    -0.350 OA
HETATM   37  CAR   D T1356      -0.339  -9.150  13.491  1.00 43.52     0.178 C 
HETATM   38  CAU   D T1356      -1.289  -8.062  12.950  1.00 42.73     0.282 C 
ENDBRANCH  32  33
ENDBRANCH  31  32
ENDBRANCH  30  31
ENDBRANCH  29  30
ENDBRANCH   1  29
TORSDOF 10
ENDMDL
MODEL 7
REMARK VINA RESULT:    -8.643      2.994      9.034
REMARK INTER + INTRA:         -14.651
REMARK INTER:                 -13.157
REMARK INTRA:                  -1.494
REMARK UNBOUND:                -0.956
REMARK  10 active torsions:
REMARK  status: ('A' for Active; 'I' for Inactive)
REMARK    1  A    between atoms: NBL_6  and  CAS_7 
REMARK    2  A    between atoms: CAS_7  and  CAO_8 
REMARK    3  A    between atoms: CAO_8  and  CAP_9 
REMARK    4  A    between atoms: CAP_9  and  OBB_10 
REMARK    5  A    between atoms: OBB_10  and  CBH_11 
REMARK    6  A    between atoms: CBG_13  and  OAZ_14 
REMARK    7  A    between atoms: C6_22  and  NAY_23 
REMARK    8  A    between atoms: NAY_23  and  CBE_24 
REMARK    9  A    between atoms: CBD_29  and  NAX_30 
REMARK       I    between atoms: NAX_30  and  CBC_31 
REMARK   10  A    between atoms: CBC_31  and  CBF_33 
ROOT
HETATM    1  CBH   D T1356      -1.272  -2.377  11.614  1.00 30.53     0.118 A 
HETATM    2  CAM   D T1356      -2.636  -2.215  11.350  1.00 29.88     0.045 A 
HETATM    3  CBG   D T1356      -0.669  -3.631  11.388  1.00 30.48     0.117 A 
HETATM    4  CAN   D T1356      -1.422  -4.705  10.916  1.00 29.67     0.031 A 
HETATM    5  C5    D T1356      -2.786  -4.547  10.646  1.00 29.79     0.056 A 
HETATM    6  C4    D T1356      -3.385  -3.294  10.866  1.00 29.99     0.088 A 
HETATM    7  N3    D T1356      -4.694  -3.122  10.615  1.00 29.16    -0.224 NA
HETATM    8  C2    D T1356      -5.473  -4.182  10.135  1.00 30.02     0.200 A 
HETATM    9  N1    D T1356      -4.874  -5.432   9.908  1.00 29.74    -0.205 NA
HETATM   10  C6    D T1356      -3.564  -5.610  10.159  1.00 29.94     0.166 A 
ENDROOT
BRANCH  10  11
HETATM   11  NAY   D T1356      -2.943  -6.803   9.970  1.00 31.31    -0.227 NA
BRANCH  11  12
HETATM   12  CBE   D T1356      -2.801  -7.687  10.996  1.00 32.67     0.083 A 
HETATM   13  CAK   D T1356      -1.665  -8.497  11.050  1.00 33.73     0.021 A 
HETATM   14  CAI   D T1356      -1.484  -9.409  12.094  1.00 34.14     0.021 A 
HETATM   15  CBD   D T1356      -2.432  -9.512  13.123  1.00 33.99     0.085 A 
HETATM   16  CAH   D T1356      -3.567  -8.705  13.068  1.00 33.61     0.021 A 
HETATM   17  CAJ   D T1356      -3.745  -7.798  12.023  1.00 33.42     0.021 A 
BRANCH  15  18
HETATM   18  NAX   D T1356      -2.318 -10.397  14.143  1.00 34.41    -0.208 NA
HETATM   19  CBC   D T1356      -1.546 -10.143  15.228  1.00 37.04     0.279 C 
HETATM   20  OAB   D T1356      -0.898  -9.108  15.409  1.00 38.15    -0.265 OA
BRANCH  19  21
HETATM   21  CBF   D T1356      -1.521 -11.168  16.177  1.00 37.03     0.058 A 
HETATM   22  CAF   D T1356      -0.692 -11.065  17.296  1.00 38.06     0.005 A 
HETATM   23  CAD   D T1356      -0.658 -12.087  18.239  1.00 38.28     0.000 A 
HETATM   24  CAC   D T1356      -1.449 -13.223  18.068  1.00 38.02     0.000 A 
HETATM   25  CAE   D T1356      -2.281 -13.327  16.957  1.00 37.90     0.000 A 
HETATM   26  CAG   D T1356      -2.309 -12.307  16.010  1.00 37.23     0.005 A 
ENDBRANCH  19  21
ENDBRANCH  15  18
ENDBRANCH  11  12
ENDBRANCH  10  11
BRANCH   3  27
HETATM   27  OAZ   D T1356       0.668  -3.797  11.669  1.00 30.66    -0.326 OA
HETATM   28  CAA   D T1356       1.530  -4.064  10.560  1.00 33.36     0.181 C 
ENDBRANCH   3  27
BRANCH   1  29
HETATM   29  OBB   D T1356      -0.459  -1.377  12.090  1.00 30.55    -0.329 OA
BRANCH  29  30
HETATM   30  CAP   D T1356       0.258  -0.542  11.152  1.00 33.72     0.151 C 
BRANCH  30  31
HETATM   31  CAO   D T1356      -0.449   0.823  11.048  1.00 37.07     0.068 C 
BRANCH  31  32
HETATM   32  CAS   D T1356      -1.161   0.908   9.690  1.00 39.71     0.253 C 
BRANCH  32  33
HETATM   33  NBL   D T1356      -2.569   1.375   9.673  1.00 41.70     0.142 N 
HETATM   34  CAT   D T1356      -2.778   2.707   9.061  1.00 43.12     0.282 C 
HETATM   35  CAQ   D T1356      -4.287   3.021   8.982  1.00 43.52     0.178 C 
HETATM   36  OBA   D T1356      -5.071   1.868   9.452  1.00 44.22    -0.350 OA
HETATM   37  CAR   D T1356      -4.749   1.464  10.827  1.00 43.52     0.178 C 
HETATM   38  CAU   D T1356      -3.223   1.315  10.999  1.00 42.73     0.282 C 
ENDBRANCH  32  33
ENDBRANCH  31  32
ENDBRANCH  30  31
ENDBRANCH  29  30
ENDBRANCH   1  29
TORSDOF 10
ENDMDL
MODEL 8
REMARK VINA RESULT:    -8.617      1.904      6.546
REMARK INTER + INTRA:         -14.610
REMARK INTER:                 -13.452
REMARK INTRA:                  -1.158
REMARK UNBOUND:                -0.956
REMARK  10 active torsions:
REMARK  status: ('A' for Active; 'I' for Inactive)
REMARK    1  A    between atoms: NBL_6  and  CAS_7 
REMARK    2  A    between atoms: CAS_7  and  CAO_8 
REMARK    3  A    between atoms: CAO_8  and  CAP_9 
REMARK    4  A    between atoms: CAP_9  and  OBB_10 
REMARK    5  A    between atoms: OBB_10  and  CBH_11 
REMARK    6  A    between atoms: CBG_13  and  OAZ_14 
REMARK    7  A    between atoms: C6_22  and  NAY_23 
REMARK    8  A    between atoms: NAY_23  and  CBE_24 
REMARK    9  A    between atoms: CBD_29  and  NAX_30 
REMARK       I    between atoms: NAX_30  and  CBC_31 
REMARK   10  A    between atoms: CBC_31  and  CBF_33 
ROOT
HETATM    1  CBH   D T1356      -0.569   1.050   9.936  1.00 30.53     0.118 A 
HETATM    2  CAM   D T1356      -1.527   1.368   8.967  1.00 29.88     0.045 A 
HETATM    3  CBG   D T1356      -0.896   0.132  10.954  1.00 30.48     0.117 A 
HETATM    4  CAN   D T1356      -2.162  -0.450  11.007  1.00 29.67     0.031 A 
HETATM    5  C5    D T1356      -3.122  -0.138  10.038  1.00 29.79     0.056 A 
HETATM    6  C4    D T1356      -2.794   0.774   9.019  1.00 29.99     0.088 A 
HETATM    7  N3    D T1356      -3.703   1.087   8.080  1.00 29.16    -0.224 NA
HETATM    8  C2    D T1356      -4.980   0.514   8.104  1.00 30.02     0.200 A 
HETATM    9  N1    D T1356      -5.306  -0.402   9.118  1.00 29.74    -0.205 NA
HETATM   10  C6    D T1356      -4.401  -0.718  10.062  1.00 29.94     0.166 A 
ENDROOT
BRANCH  10  11
HETATM   11  NAY   D T1356      -4.674  -1.587  11.069  1.00 31.31    -0.227 NA
BRANCH  11  12
HETATM   12  CBE   D T1356      -4.077  -2.810  11.117  1.00 32.67     0.083 A 
HETATM   13  CAK   D T1356      -4.500  -3.813  10.242  1.00 33.73     0.021 A 
HETATM   14  CAI   D T1356      -3.903  -5.077  10.260  1.00 34.14     0.021 A 
HETATM   15  CBD   D T1356      -2.851  -5.357  11.144  1.00 33.99     0.085 A 
HETATM   16  CAH   D T1356      -2.430  -4.357  12.019  1.00 33.61     0.021 A 
HETATM   17  CAJ   D T1356      -3.030  -3.097  12.000  1.00 33.42     0.021 A 
BRANCH  15  18
HETATM   18  NAX   D T1356      -2.256  -6.572  11.219  1.00 34.41    -0.208 NA
HETATM   19  CBC   D T1356      -2.801  -7.593  11.924  1.00 37.04     0.279 C 
HETATM   20  OAB   D T1356      -3.870  -7.538  12.539  1.00 38.15    -0.265 OA
BRANCH  19  21
HETATM   21  CBF   D T1356      -2.049  -8.771  11.917  1.00 37.03     0.058 A 
HETATM   22  CAF   D T1356      -2.210  -9.708  12.941  1.00 38.06     0.005 A 
HETATM   23  CAD   D T1356      -1.456 -10.879  12.942  1.00 38.28     0.000 A 
HETATM   24  CAC   D T1356      -0.533 -11.118  11.925  1.00 38.02     0.000 A 
HETATM   25  CAE   D T1356      -0.375 -10.189  10.901  1.00 37.90     0.000 A 
HETATM   26  CAG   D T1356      -1.123  -9.015  10.903  1.00 37.23     0.005 A 
ENDBRANCH  19  21
ENDBRANCH  15  18
ENDBRANCH  11  12
ENDBRANCH  10  11
BRANCH   3  27
HETATM   27  OAZ   D T1356       0.039  -0.164  11.920  1.00 30.66    -0.326 OA
HETATM   28  CAA   D T1356       0.272  -1.549  12.188  1.00 33.36     0.181 C 
ENDBRANCH   3  27
BRANCH   1  29
HETATM   29  OBB   D T1356       0.696   1.583   9.966  1.00 30.55    -0.329 OA
BRANCH  29  30
HETATM   30  CAP   D T1356       1.608   1.301   8.880  1.00 33.72     0.151 C 
BRANCH  30  31
HETATM   31  CAO   D T1356       2.752   0.410   9.401  1.00 37.07     0.068 C 
BRANCH  31  32
HETATM   32  CAS   D T1356       2.537  -1.021   8.888  1.00 39.71     0.253 C 
BRANCH  32  33
HETATM   33  NBL   D T1356       2.786  -2.140   9.830  1.00 41.70     0.142 N 
HETATM   34  CAT   D T1356       4.035  -2.029  10.617  1.00 43.12     0.282 C 
HETATM   35  CAQ   D T1356       4.113  -3.174  11.649  1.00 43.52     0.178 C 
HETATM   36  OBA   D T1356       2.884  -3.981  11.606  1.00 44.22    -0.350 OA
HETATM   37  CAR   D T1356       2.610  -4.560  10.283  1.00 43.52     0.178 C 
HETATM   38  CAU   D T1356       2.702  -3.473   9.193  1.00 42.73     0.282 C 
ENDBRANCH  32  33
ENDBRANCH  31  32
ENDBRANCH  30  31
ENDBRANCH  29  30
ENDBRANCH   1  29
TORSDOF 10
ENDMDL
MODEL 9
REMARK VINA RESULT:    -8.599      2.797      7.812
REMARK INTER + INTRA:         -14.582
REMARK INTER:                 -12.809
REMARK INTRA:                  -1.774
REMARK UNBOUND:                -0.956
REMARK  10 active torsions:
REMARK  status: ('A' for Active; 'I' for Inactive)
REMARK    1  A    between atoms: NBL_6  and  CAS_7 
REMARK    2  A    between atoms: CAS_7  and  CAO_8 
REMARK    3  A    between atoms: CAO_8  and  CAP_9 
REMARK    4  A    between atoms: CAP_9  and  OBB_10 
REMARK    5  A    between atoms: OBB_10  and  CBH_11 
REMARK    6  A    between atoms: CBG_13  and  OAZ_14 
REMARK    7  A    between atoms: C6_22  and  NAY_23 
REMARK    8  A    between atoms: NAY_23  and  CBE_24 
REMARK    9  A    between atoms: CBD_29  and  NAX_30 
REMARK       I    between atoms: NAX_30  and  CBC_31 
REMARK   10  A    between atoms: CBC_31  and  CBF_33 
ROOT
HETATM    1  CBH   D T1356       4.693  -0.340  11.357  1.00 30.53     0.118 A 
HETATM    2  CAM   D T1356       5.250   0.572  10.454  1.00 29.88     0.045 A 
HETATM    3  CBG   D T1356       3.432  -0.069  11.924  1.00 30.48     0.117 A 
HETATM    4  CAN   D T1356       2.745   1.101  11.600  1.00 29.67     0.031 A 
HETATM    5  C5    D T1356       3.296   2.014  10.694  1.00 29.79     0.056 A 
HETATM    6  C4    D T1356       4.551   1.740  10.124  1.00 29.99     0.088 A 
HETATM    7  N3    D T1356       5.098   2.606   9.254  1.00 29.16    -0.224 NA
HETATM    8  C2    D T1356       4.428   3.784   8.905  1.00 30.02     0.200 A 
HETATM    9  N1    D T1356       3.170   4.056   9.468  1.00 29.74    -0.205 NA
HETATM   10  C6    D T1356       2.619   3.194  10.342  1.00 29.94     0.166 A 
ENDROOT
BRANCH  10  11
HETATM   11  NAY   D T1356       1.413   3.419  10.924  1.00 31.31    -0.227 NA
BRANCH  11  12
HETATM   12  CBE   D T1356       0.357   2.594  10.685  1.00 32.67     0.083 A 
HETATM   13  CAK   D T1356      -0.646   2.468  11.647  1.00 33.73     0.021 A 
HETATM   14  CAI   D T1356      -1.748   1.635  11.429  1.00 34.14     0.021 A 
HETATM   15  CBD   D T1356      -1.878   0.925  10.227  1.00 33.99     0.085 A 
HETATM   16  CAH   D T1356      -0.875   1.049   9.266  1.00 33.61     0.021 A 
HETATM   17  CAJ   D T1356       0.224   1.880   9.489  1.00 33.42     0.021 A 
BRANCH  15  18
HETATM   18  NAX   D T1356      -2.912   0.086   9.975  1.00 34.41    -0.208 NA
HETATM   19  CBC   D T1356      -2.980  -1.150  10.527  1.00 37.04     0.279 C 
HETATM   20  OAB   D T1356      -2.148  -1.625  11.306  1.00 38.15    -0.265 OA
BRANCH  19  21
HETATM   21  CBF   D T1356      -4.099  -1.896  10.147  1.00 37.03     0.058 A 
HETATM   22  CAF   D T1356      -4.179  -3.252  10.473  1.00 38.06     0.005 A 
HETATM   23  CAD   D T1356      -5.289  -4.000  10.089  1.00 38.28     0.000 A 
HETATM   24  CAC   D T1356      -6.323  -3.399   9.372  1.00 38.02     0.000 A 
HETATM   25  CAE   D T1356      -6.249  -2.047   9.050  1.00 37.90     0.000 A 
HETATM   26  CAG   D T1356      -5.136  -1.301   9.428  1.00 37.23     0.005 A 
ENDBRANCH  19  21
ENDBRANCH  15  18
ENDBRANCH  11  12
ENDBRANCH  10  11
BRANCH   3  27
HETATM   27  OAZ   D T1356       2.895  -0.955  12.829  1.00 30.66    -0.326 OA
HETATM   28  CAA   D T1356       1.468  -1.017  12.900  1.00 33.36     0.181 C 
ENDBRANCH   3  27
BRANCH   1  29
HETATM   29  OBB   D T1356       5.305  -1.510  11.739  1.00 30.55    -0.329 OA
BRANCH  29  30
HETATM   30  CAP   D T1356       6.109  -2.234  10.781  1.00 33.72     0.151 C 
BRANCH  30  31
HETATM   31  CAO   D T1356       5.569  -3.670  10.652  1.00 37.07     0.068 C 
BRANCH  31  32
HETATM   32  CAS   D T1356       4.579  -3.723   9.479  1.00 39.71     0.253 C 
BRANCH  32  33
HETATM   33  NBL   D T1356       3.131  -3.786   9.795  1.00 41.70     0.142 N 
HETATM   34  CAT   D T1356       2.357  -2.582   9.417  1.00 43.12     0.282 C 
HETATM   35  CAQ   D T1356       0.853  -2.819   9.671  1.00 43.52     0.178 C 
HETATM   36  OBA   D T1356       0.627  -4.200  10.126  1.00 44.22    -0.350 OA
HETATM   37  CAR   D T1356       1.368  -4.541  11.347  1.00 43.52     0.178 C 
HETATM   38  CAU   D T1356       2.853  -4.150  11.202  1.00 42.73     0.282 C 
ENDBRANCH  32  33
ENDBRANCH  31  32
ENDBRANCH  30  31
ENDBRANCH  29  30
ENDBRANCH   1  29
TORSDOF 10
ENDMDL
