MODEL 1
REMARK VINA RESULT:    -9.118      0.000      0.000
REMARK INTER + INTRA:         -11.524
REMARK INTER:                 -11.250
REMARK INTRA:                  -0.274
REMARK UNBOUND:                -0.274
REMARK  4 active torsions:
REMARK  status: ('A' for Active; 'I' for Inactive)
REMARK    1  A    between atoms: C2_2  and  C4_4 
REMARK    2  A    between atoms: C6_6  and  C7_7 
REMARK       I    between atoms: C7_7  and  N9_9 
REMARK    3  A    between atoms: C14_14  and  C15_15 
REMARK    4  A    between atoms: C15_15  and  N16_16 
ROOT
HETATM    1  C7    D T1232      26.635  -1.787 -26.967  1.00  9.97     0.260 C 
HETATM    2  O8    D T1232      25.621  -1.327 -27.453  1.00 12.42    -0.267 OA
HETATM    3  N9    D T1232      27.854  -1.443 -27.407  1.00 13.46    -0.308 N 
HETATM    4  C10   D T1232      28.078  -0.415 -28.435  1.00 13.49     0.131 C 
HETATM    5  C11   D T1232      29.538  -0.101 -28.263  1.00 13.44    -0.002 A 
HETATM    6  C12   D T1232      30.309   0.863 -28.900  1.00 17.34    -0.003 A 
HETATM    7  C13   D T1232      31.654   0.983 -28.599  1.00 16.78    -0.003 A 
HETATM    8  C14   D T1232      32.246   0.145 -27.661  1.00 25.83     0.011 A 
HETATM    9  C25   D T1232      31.455  -0.813 -27.031  1.00 22.06    -0.005 A 
HETATM   10  C26   D T1232      30.109  -0.927 -27.331  1.00 12.57    -0.002 A 
HETATM   11  C27   D T1232      29.105  -1.910 -26.793  1.00 12.00     0.131 C 
ENDROOT
BRANCH   1  12
HETATM   12  C6    D T1232      26.542  -2.829 -25.907  1.00 12.21     0.081 A 
HETATM   13  C5    D T1232      26.867  -4.153 -26.208  1.00 15.89     0.005 A 
HETATM   14  C4    D T1232      26.815  -5.152 -25.236  1.00  9.53     0.003 A 
HETATM   15  C31   D T1232      26.372  -4.788 -23.945  1.00 10.77     0.129 A 
HETATM   16  C30   D T1232      26.053  -3.474 -23.643  1.00 12.43     0.055 A 
HETATM   17  O32   D T1232      26.294  -5.713 -22.940  1.00 13.22    -0.190 OA
HETATM   18  C28   D T1232      26.143  -2.489 -24.627  1.00 11.17     0.138 A 
HETATM   19  O29   D T1232      25.823  -1.187 -24.342  1.00 12.20    -0.190 OA
BRANCH  14  20
HETATM   20  C2    D T1232      27.082  -6.616 -25.588  1.00 12.98     0.024 C 
HETATM   21  C1    D T1232      25.803  -7.450 -25.450  1.00 15.54     0.005 C 
HETATM   22  C3    D T1232      27.693  -6.808 -26.972  1.00 14.93     0.005 C 
ENDBRANCH  14  20
ENDBRANCH   1  12
BRANCH   8  23
HETATM   23  C15   D T1232      33.717   0.256 -27.341  1.00 39.58     0.277 C 
BRANCH  23  24
HETATM   24  N16   D T1232      34.270   1.629 -27.636  1.00 54.90     0.146 N 
HETATM   25  C18   D T1232      34.662   2.341 -26.374  1.00 62.09     0.286 C 
HETATM   26  C19   D T1232      35.237   3.718 -26.671  1.00 64.75     0.286 C 
HETATM   27  N20   D T1232      36.413   3.588 -27.584  1.00 66.96     0.143 N 
HETATM   28  C22   D T1232      37.069   4.907 -27.826  1.00 67.04     0.285 C 
HETATM   29  C23   D T1232      35.994   2.940 -28.864  1.00 63.79     0.286 C 
HETATM   30  C24   D T1232      35.433   1.555 -28.581  1.00 59.84     0.286 C 
ENDBRANCH  23  24
ENDBRANCH   8  23
TORSDOF 4
ENDMDL
MODEL 2
REMARK VINA RESULT:    -8.846      1.849      2.598
REMARK INTER + INTRA:         -11.189
REMARK INTER:                 -10.787
REMARK INTRA:                  -0.401
REMARK UNBOUND:                -0.274
REMARK  4 active torsions:
REMARK  status: ('A' for Active; 'I' for Inactive)
REMARK    1  A    between atoms: C2_2  and  C4_4 
REMARK    2  A    between atoms: C6_6  and  C7_7 
REMARK       I    between atoms: C7_7  and  N9_9 
REMARK    3  A    between atoms: C14_14  and  C15_15 
REMARK    4  A    between atoms: C15_15  and  N16_16 
ROOT
HETATM    1  C7    D T1232      26.595  -0.836 -28.031  1.00  9.97     0.260 C 
HETATM    2  O8    D T1232      25.748  -0.003 -28.284  1.00 12.42    -0.267 OA
HETATM    3  N9    D T1232      27.903  -0.590 -28.186  1.00 13.46    -0.308 N 
HETATM    4  C10   D T1232      28.435   0.725 -28.575  1.00 13.49     0.131 C 
HETATM    5  C11   D T1232      29.885   0.610 -28.198  1.00 13.44    -0.002 A 
HETATM    6  C12   D T1232      30.884   1.575 -28.250  1.00 17.34    -0.003 A 
HETATM    7  C13   D T1232      32.173   1.258 -27.860  1.00 16.78    -0.003 A 
HETATM    8  C14   D T1232      32.481  -0.024 -27.415  1.00 25.83     0.011 A 
HETATM    9  C25   D T1232      31.466  -0.975 -27.369  1.00 22.06    -0.005 A 
HETATM   10  C26   D T1232      30.176  -0.653 -27.755  1.00 12.57    -0.002 A 
HETATM   11  C27   D T1232      28.962  -1.538 -27.811  1.00 12.00     0.131 C 
ENDROOT
BRANCH   1  12
HETATM   12  C6    D T1232      26.184  -2.205 -27.613  1.00 12.21     0.081 A 
HETATM   13  C5    D T1232      26.427  -2.632 -26.306  1.00 15.89     0.005 A 
HETATM   14  C4    D T1232      26.035  -3.898 -25.871  1.00  9.53     0.003 A 
HETATM   15  C31   D T1232      25.430  -4.757 -26.815  1.00 10.77     0.129 A 
HETATM   16  C30   D T1232      25.185  -4.334 -28.111  1.00 12.43     0.055 A 
HETATM   17  O32   D T1232      25.020  -6.014 -26.462  1.00 13.22    -0.190 OA
HETATM   18  C28   D T1232      25.559  -3.052 -28.511  1.00 11.17     0.138 A 
HETATM   19  O29   D T1232      25.329  -2.625 -29.794  1.00 12.20    -0.190 OA
BRANCH  14  20
HETATM   20  C2    D T1232      26.383  -4.397 -24.468  1.00 12.98     0.024 C 
HETATM   21  C1    D T1232      27.728  -5.132 -24.470  1.00 15.54     0.005 C 
HETATM   22  C3    D T1232      26.382  -3.296 -23.412  1.00 14.93     0.005 C 
ENDBRANCH  14  20
ENDBRANCH   1  12
BRANCH   8  23
HETATM   23  C15   D T1232      33.889  -0.384 -27.007  1.00 39.58     0.277 C 
BRANCH  23  24
HETATM   24  N16   D T1232      34.647   0.794 -26.444  1.00 54.90     0.146 N 
HETATM   25  C18   D T1232      35.064   0.544 -25.023  1.00 62.09     0.286 C 
HETATM   26  C19   D T1232      35.844   1.723 -24.460  1.00 64.75     0.286 C 
HETATM   27  N20   D T1232      37.038   1.994 -25.316  1.00 66.96     0.143 N 
HETATM   28  C22   D T1232      37.888   3.082 -24.746  1.00 67.04     0.285 C 
HETATM   29  C23   D T1232      36.605   2.309 -26.711  1.00 63.79     0.286 C 
HETATM   30  C24   D T1232      35.838   1.130 -27.291  1.00 59.84     0.286 C 
ENDBRANCH  23  24
ENDBRANCH   8  23
TORSDOF 4
ENDMDL
MODEL 3
REMARK VINA RESULT:    -8.813      1.351      2.274
REMARK INTER + INTRA:         -11.148
REMARK INTER:                 -10.928
REMARK INTRA:                  -0.220
REMARK UNBOUND:                -0.274
REMARK  4 active torsions:
REMARK  status: ('A' for Active; 'I' for Inactive)
REMARK    1  A    between atoms: C2_2  and  C4_4 
REMARK    2  A    between atoms: C6_6  and  C7_7 
REMARK       I    between atoms: C7_7  and  N9_9 
REMARK    3  A    between atoms: C14_14  and  C15_15 
REMARK    4  A    between atoms: C15_15  and  N16_16 
ROOT
HETATM    1  C7    D T1232      27.112  -2.606 -27.729  1.00  9.97     0.260 C 
HETATM    2  O8    D T1232      26.047  -2.170 -28.120  1.00 12.42    -0.267 OA
HETATM    3  N9    D T1232      28.258  -1.925 -27.881  1.00 13.46    -0.308 N 
HETATM    4  C10   D T1232      28.318  -0.565 -28.436  1.00 13.49     0.131 C 
HETATM    5  C11   D T1232      29.683  -0.103 -28.007  1.00 13.44    -0.002 A 
HETATM    6  C12   D T1232      30.277   1.142 -28.166  1.00 17.34    -0.003 A 
HETATM    7  C13   D T1232      31.562   1.361 -27.700  1.00 16.78    -0.003 A 
HETATM    8  C14   D T1232      32.268   0.340 -27.071  1.00 25.83     0.011 A 
HETATM    9  C25   D T1232      31.653  -0.901 -26.920  1.00 22.06    -0.005 A 
HETATM   10  C26   D T1232      30.366  -1.113 -27.383  1.00 12.57    -0.002 A 
HETATM   11  C27   D T1232      29.551  -2.376 -27.348  1.00 12.00     0.131 C 
ENDROOT
BRANCH   1  12
HETATM   12  C6    D T1232      27.181  -3.969 -27.135  1.00 12.21     0.081 A 
HETATM   13  C5    D T1232      26.631  -4.203 -25.873  1.00 15.89     0.005 A 
HETATM   14  C4    D T1232      26.654  -5.472 -25.294  1.00  9.53     0.003 A 
HETATM   15  C31   D T1232      27.303  -6.506 -26.007  1.00 10.77     0.129 A 
HETATM   16  C30   D T1232      27.846  -6.276 -27.261  1.00 12.43     0.055 A 
HETATM   17  O32   D T1232      27.367  -7.776 -25.504  1.00 13.22    -0.190 OA
HETATM   18  C28   D T1232      27.781  -5.005 -27.830  1.00 11.17     0.138 A 
HETATM   19  O29   D T1232      28.322  -4.764 -29.067  1.00 12.20    -0.190 OA
BRANCH  14  20
HETATM   20  C2    D T1232      26.134  -5.707 -23.876  1.00 12.98     0.024 C 
HETATM   21  C1    D T1232      26.146  -4.403 -23.070  1.00 15.54     0.005 C 
HETATM   22  C3    D T1232      24.750  -6.345 -23.833  1.00 14.93     0.005 C 
ENDBRANCH  14  20
ENDBRANCH   1  12
BRANCH   8  23
HETATM   23  C15   D T1232      33.677   0.563 -26.578  1.00 39.58     0.277 C 
BRANCH  23  24
HETATM   24  N16   D T1232      34.281   1.839 -27.112  1.00 54.90     0.146 N 
HETATM   25  C18   D T1232      34.965   2.615 -26.024  1.00 62.09     0.286 C 
HETATM   26  C19   D T1232      35.591   3.893 -26.565  1.00 64.75     0.286 C 
HETATM   27  N20   D T1232      36.556   3.560 -27.656  1.00 66.96     0.143 N 
HETATM   28  C22   D T1232      37.267   4.777 -28.150  1.00 67.04     0.285 C 
HETATM   29  C23   D T1232      35.848   2.848 -28.763  1.00 63.79     0.286 C 
HETATM   30  C24   D T1232      35.233   1.561 -28.238  1.00 59.84     0.286 C 
ENDBRANCH  23  24
ENDBRANCH   8  23
TORSDOF 4
ENDMDL
MODEL 4
REMARK VINA RESULT:    -8.645      2.539      3.360
REMARK INTER + INTRA:         -10.941
REMARK INTER:                 -10.472
REMARK INTRA:                  -0.469
REMARK UNBOUND:                -0.274
REMARK  4 active torsions:
REMARK  status: ('A' for Active; 'I' for Inactive)
REMARK    1  A    between atoms: C2_2  and  C4_4 
REMARK    2  A    between atoms: C6_6  and  C7_7 
REMARK       I    between atoms: C7_7  and  N9_9 
REMARK    3  A    between atoms: C14_14  and  C15_15 
REMARK    4  A    between atoms: C15_15  and  N16_16 
ROOT
HETATM    1  C7    D T1232      28.062  -0.421 -27.990  1.00  9.97     0.260 C 
HETATM    2  O8    D T1232      27.321   0.174 -28.747  1.00 12.42    -0.267 OA
HETATM    3  N9    D T1232      29.396  -0.306 -28.064  1.00 13.46    -0.308 N 
HETATM    4  C10   D T1232      30.074   0.614 -28.988  1.00 13.49     0.131 C 
HETATM    5  C11   D T1232      31.458   0.691 -28.407  1.00 13.44    -0.002 A 
HETATM    6  C12   D T1232      32.533   1.479 -28.801  1.00 17.34    -0.003 A 
HETATM    7  C13   D T1232      33.739   1.391 -28.129  1.00 16.78    -0.003 A 
HETATM    8  C14   D T1232      33.888   0.517 -27.057  1.00 25.83     0.011 A 
HETATM    9  C25   D T1232      32.798  -0.263 -26.676  1.00 22.06    -0.005 A 
HETATM   10  C26   D T1232      31.592  -0.168 -27.349  1.00 12.57    -0.002 A 
HETATM   11  C27   D T1232      30.323  -0.941 -27.116  1.00 12.00     0.131 C 
ENDROOT
BRANCH   1  12
HETATM   12  C6    D T1232      27.495  -1.376 -26.997  1.00 12.21     0.081 A 
HETATM   13  C5    D T1232      27.656  -2.749 -27.188  1.00 15.89     0.005 A 
HETATM   14  C4    D T1232      27.161  -3.674 -26.268  1.00  9.53     0.003 A 
HETATM   15  C31   D T1232      26.443  -3.174 -25.159  1.00 10.77     0.129 A 
HETATM   16  C30   D T1232      26.287  -1.810 -24.965  1.00 12.43     0.055 A 
HETATM   17  O32   D T1232      25.928  -4.018 -24.215  1.00 13.22    -0.190 OA
HETATM   18  C28   D T1232      26.819  -0.908 -25.885  1.00 11.17     0.138 A 
HETATM   19  O29   D T1232      26.664   0.443 -25.707  1.00 12.20    -0.190 OA
BRANCH  14  20
HETATM   20  C2    D T1232      27.256  -5.178 -26.525  1.00 12.98     0.024 C 
HETATM   21  C1    D T1232      25.999  -5.689 -27.236  1.00 15.54     0.005 C 
HETATM   22  C3    D T1232      28.506  -5.585 -27.299  1.00 14.93     0.005 C 
ENDBRANCH  14  20
ENDBRANCH   1  12
BRANCH   8  23
HETATM   23  C15   D T1232      35.206   0.400 -26.331  1.00 39.58     0.277 C 
BRANCH  23  24
HETATM   24  N16   D T1232      36.065  -0.719 -26.868  1.00 54.90     0.146 N 
HETATM   25  C18   D T1232      37.481  -0.266 -27.079  1.00 62.09     0.286 C 
HETATM   26  C19   D T1232      38.352  -1.398 -27.603  1.00 64.75     0.286 C 
HETATM   27  N20   D T1232      38.308  -2.550 -26.652  1.00 66.96     0.143 N 
HETATM   28  C22   D T1232      39.226  -3.649 -27.078  1.00 67.04     0.285 C 
HETATM   29  C23   D T1232      36.902  -3.036 -26.504  1.00 63.79     0.286 C 
HETATM   30  C24   D T1232      36.025  -1.917 -25.965  1.00 59.84     0.286 C 
ENDBRANCH  23  24
ENDBRANCH   8  23
TORSDOF 4
ENDMDL
MODEL 5
REMARK VINA RESULT:    -8.184      3.928      9.716
REMARK INTER + INTRA:         -10.371
REMARK INTER:                 -10.769
REMARK INTRA:                   0.397
REMARK UNBOUND:                -0.274
REMARK  4 active torsions:
REMARK  status: ('A' for Active; 'I' for Inactive)
REMARK    1  A    between atoms: C2_2  and  C4_4 
REMARK    2  A    between atoms: C6_6  and  C7_7 
REMARK       I    between atoms: C7_7  and  N9_9 
REMARK    3  A    between atoms: C14_14  and  C15_15 
REMARK    4  A    between atoms: C15_15  and  N16_16 
ROOT
HETATM    1  C7    D T1232      32.895   1.747 -28.181  1.00  9.97     0.260 C 
HETATM    2  O8    D T1232      32.659   2.870 -28.578  1.00 12.42    -0.267 OA
HETATM    3  N9    D T1232      31.920   0.898 -27.826  1.00 13.46    -0.308 N 
HETATM    4  C10   D T1232      30.490   1.206 -27.977  1.00 13.49     0.131 C 
HETATM    5  C11   D T1232      29.854  -0.151 -27.865  1.00 13.44    -0.002 A 
HETATM    6  C12   D T1232      28.521  -0.511 -28.015  1.00 17.34    -0.003 A 
HETATM    7  C13   D T1232      28.138  -1.831 -27.861  1.00 16.78    -0.003 A 
HETATM    8  C14   D T1232      29.080  -2.808 -27.553  1.00 25.83     0.011 A 
HETATM    9  C25   D T1232      30.412  -2.427 -27.409  1.00 22.06    -0.005 A 
HETATM   10  C26   D T1232      30.791  -1.106 -27.570  1.00 12.57    -0.002 A 
HETATM   11  C27   D T1232      32.157  -0.495 -27.421  1.00 12.00     0.131 C 
ENDROOT
BRANCH   1  12
HETATM   12  C6    D T1232      34.306   1.308 -27.996  1.00 12.21     0.081 A 
HETATM   13  C5    D T1232      34.653   0.546 -26.879  1.00 15.89     0.005 A 
HETATM   14  C4    D T1232      35.959   0.096 -26.684  1.00  9.53     0.003 A 
HETATM   15  C31   D T1232      36.934   0.482 -27.631  1.00 10.77     0.129 A 
HETATM   16  C30   D T1232      36.590   1.235 -28.743  1.00 12.43     0.055 A 
HETATM   17  O32   D T1232      38.235   0.080 -27.507  1.00 13.22    -0.190 OA
HETATM   18  C28   D T1232      35.270   1.646 -28.929  1.00 11.17     0.138 A 
HETATM   19  O29   D T1232      34.920   2.397 -30.021  1.00 12.20    -0.190 OA
BRANCH  14  20
HETATM   20  C2    D T1232      36.357  -0.659 -25.416  1.00 12.98     0.024 C 
HETATM   21  C1    D T1232      35.933   0.118 -24.165  1.00 15.54     0.005 C 
HETATM   22  C3    D T1232      35.819  -2.085 -25.362  1.00 14.93     0.005 C 
ENDBRANCH  14  20
ENDBRANCH   1  12
BRANCH   8  23
HETATM   23  C15   D T1232      28.668  -4.248 -27.363  1.00 39.58     0.277 C 
BRANCH  23  24
HETATM   24  N16   D T1232      27.584  -4.407 -26.326  1.00 54.90     0.146 N 
HETATM   25  C18   D T1232      26.533  -5.378 -26.781  1.00 62.09     0.286 C 
HETATM   26  C19   D T1232      25.448  -5.553 -25.728  1.00 64.75     0.286 C 
HETATM   27  N20   D T1232      26.060  -6.009 -24.444  1.00 66.96     0.143 N 
HETATM   28  C22   D T1232      25.020  -6.288 -23.409  1.00 67.04     0.285 C 
HETATM   29  C23   D T1232      27.054  -5.000 -23.966  1.00 63.79     0.286 C 
HETATM   30  C24   D T1232      28.153  -4.829 -25.004  1.00 59.84     0.286 C 
ENDBRANCH  23  24
ENDBRANCH   8  23
TORSDOF 4
ENDMDL
MODEL 6
REMARK VINA RESULT:    -8.172      4.312      9.437
REMARK INTER + INTRA:         -10.356
REMARK INTER:                  -9.626
REMARK INTRA:                  -0.730
REMARK UNBOUND:                -0.274
REMARK  4 active torsions:
REMARK  status: ('A' for Active; 'I' for Inactive)
REMARK    1  A    between atoms: C2_2  and  C4_4 
REMARK    2  A    between atoms: C6_6  and  C7_7 
REMARK       I    between atoms: C7_7  and  N9_9 
REMARK    3  A    between atoms: C14_14  and  C15_15 
REMARK    4  A    between atoms: C15_15  and  N16_16 
ROOT
HETATM    1  C7    D T1232      34.858   1.457 -26.913  1.00  9.97     0.260 C 
HETATM    2  O8    D T1232      35.199   2.549 -27.323  1.00 12.42    -0.267 OA
HETATM    3  N9    D T1232      33.579   1.056 -26.935  1.00 13.46    -0.308 N 
HETATM    4  C10   D T1232      32.498   1.848 -27.542  1.00 13.49     0.131 C 
HETATM    5  C11   D T1232      31.403   0.830 -27.699  1.00 13.44    -0.002 A 
HETATM    6  C12   D T1232      30.157   0.967 -28.299  1.00 17.34    -0.003 A 
HETATM    7  C13   D T1232      29.283  -0.105 -28.331  1.00 16.78    -0.003 A 
HETATM    8  C14   D T1232      29.640  -1.325 -27.765  1.00 25.83     0.011 A 
HETATM    9  C25   D T1232      30.894  -1.442 -27.171  1.00 22.06    -0.005 A 
HETATM   10  C26   D T1232      31.767  -0.369 -27.146  1.00 12.57    -0.002 A 
HETATM   11  C27   D T1232      33.136  -0.285 -26.528  1.00 12.00     0.131 C 
ENDROOT
BRANCH   1  12
HETATM   12  C6    D T1232      35.863   0.555 -26.286  1.00 12.21     0.081 A 
HETATM   13  C5    D T1232      36.553  -0.367 -27.075  1.00 15.89     0.005 A 
HETATM   14  C4    D T1232      37.519  -1.212 -26.529  1.00  9.53     0.003 A 
HETATM   15  C31   D T1232      37.740  -1.140 -25.136  1.00 10.77     0.129 A 
HETATM   16  C30   D T1232      37.060  -0.222 -24.351  1.00 12.43     0.055 A 
HETATM   17  O32   D T1232      38.671  -1.937 -24.528  1.00 13.22    -0.190 OA
HETATM   18  C28   D T1232      36.121   0.632 -24.929  1.00 11.17     0.138 A 
HETATM   19  O29   D T1232      35.436   1.539 -24.161  1.00 12.20    -0.190 OA
BRANCH  14  20
HETATM   20  C2    D T1232      38.206  -2.284 -27.376  1.00 12.98     0.024 C 
HETATM   21  C1    D T1232      37.358  -3.559 -27.433  1.00 15.54     0.005 C 
HETATM   22  C3    D T1232      38.554  -1.815 -28.785  1.00 14.93     0.005 C 
ENDBRANCH  14  20
ENDBRANCH   1  12
BRANCH   8  23
HETATM   23  C15   D T1232      28.684  -2.493 -27.777  1.00 39.58     0.277 C 
BRANCH  23  24
HETATM   24  N16   D T1232      28.281  -2.925 -26.389  1.00 54.90     0.146 N 
HETATM   25  C18   D T1232      26.877  -2.496 -26.071  1.00 62.09     0.286 C 
HETATM   26  C19   D T1232      26.462  -2.947 -24.678  1.00 64.75     0.286 C 
HETATM   27  N20   D T1232      26.593  -4.431 -24.568  1.00 66.96     0.143 N 
HETATM   28  C22   D T1232      26.104  -4.929 -23.248  1.00 67.04     0.285 C 
HETATM   29  C23   D T1232      28.009  -4.838 -24.819  1.00 63.79     0.286 C 
HETATM   30  C24   D T1232      28.430  -4.407 -26.215  1.00 59.84     0.286 C 
ENDBRANCH  23  24
ENDBRANCH   8  23
TORSDOF 4
ENDMDL
MODEL 7
REMARK VINA RESULT:    -7.830      2.527      3.129
REMARK INTER + INTRA:          -9.935
REMARK INTER:                 -10.385
REMARK INTRA:                   0.450
REMARK UNBOUND:                -0.274
REMARK  4 active torsions:
REMARK  status: ('A' for Active; 'I' for Inactive)
REMARK    1  A    between atoms: C2_2  and  C4_4 
REMARK    2  A    between atoms: C6_6  and  C7_7 
REMARK       I    between atoms: C7_7  and  N9_9 
REMARK    3  A    between atoms: C14_14  and  C15_15 
REMARK    4  A    between atoms: C15_15  and  N16_16 
ROOT
HETATM    1  C7    D T1232      27.344  -0.189 -28.176  1.00  9.97     0.260 C 
HETATM    2  O8    D T1232      26.627   0.742 -28.485  1.00 12.42    -0.267 OA
HETATM    3  N9    D T1232      28.681  -0.107 -28.235  1.00 13.46    -0.308 N 
HETATM    4  C10   D T1232      29.397   1.130 -28.578  1.00 13.49     0.131 C 
HETATM    5  C11   D T1232      30.791   0.838 -28.098  1.00 13.44    -0.002 A 
HETATM    6  C12   D T1232      31.903   1.671 -28.071  1.00 17.34    -0.003 A 
HETATM    7  C13   D T1232      33.111   1.199 -27.592  1.00 16.78    -0.003 A 
HETATM    8  C14   D T1232      33.226  -0.110 -27.134  1.00 25.83     0.011 A 
HETATM    9  C25   D T1232      32.100  -0.928 -27.166  1.00 22.06    -0.005 A 
HETATM   10  C26   D T1232      30.891  -0.450 -27.642  1.00 12.57    -0.002 A 
HETATM   11  C27   D T1232      29.584  -1.178 -27.791  1.00 12.00     0.131 C 
ENDROOT
BRANCH   1  12
HETATM   12  C6    D T1232      26.738  -1.496 -27.797  1.00 12.21     0.081 A 
HETATM   13  C5    D T1232      25.933  -2.176 -28.712  1.00 15.89     0.005 A 
HETATM   14  C4    D T1232      25.368  -3.414 -28.403  1.00  9.53     0.003 A 
HETATM   15  C31   D T1232      25.596  -3.933 -27.110  1.00 10.77     0.129 A 
HETATM   16  C30   D T1232      26.399  -3.261 -26.201  1.00 12.43     0.055 A 
HETATM   17  O32   D T1232      25.075  -5.140 -26.733  1.00 13.22    -0.190 OA
HETATM   18  C28   D T1232      26.976  -2.040 -26.548  1.00 11.17     0.138 A 
HETATM   19  O29   D T1232      27.766  -1.362 -25.655  1.00 12.20    -0.190 OA
BRANCH  14  20
HETATM   20  C2    D T1232      24.413  -4.113 -29.371  1.00 12.98     0.024 C 
HETATM   21  C1    D T1232      22.954  -3.812 -29.008  1.00 15.54     0.005 C 
HETATM   22  C3    D T1232      24.676  -3.779 -30.835  1.00 14.93     0.005 C 
ENDBRANCH  14  20
ENDBRANCH   1  12
BRANCH   8  23
HETATM   23  C15   D T1232      34.545  -0.640 -26.627  1.00 39.58     0.277 C 
BRANCH  23  24
HETATM   24  N16   D T1232      35.399   0.435 -26.001  1.00 54.90     0.146 N 
HETATM   25  C18   D T1232      35.579   0.199 -24.529  1.00 62.09     0.286 C 
HETATM   26  C19   D T1232      36.455   1.273 -23.899  1.00 64.75     0.286 C 
HETATM   27  N20   D T1232      37.780   1.313 -24.589  1.00 66.96     0.143 N 
HETATM   28  C22   D T1232      38.707   2.287 -23.940  1.00 67.04     0.285 C 
HETATM   29  C23   D T1232      37.590   1.617 -26.040  1.00 63.79     0.286 C 
HETATM   30  C24   D T1232      36.730   0.541 -26.684  1.00 59.84     0.286 C 
ENDBRANCH  23  24
ENDBRANCH   8  23
TORSDOF 4
ENDMDL
MODEL 8
REMARK VINA RESULT:    -7.619      4.833     11.193
REMARK INTER + INTRA:          -9.674
REMARK INTER:                  -9.112
REMARK INTRA:                  -0.562
REMARK UNBOUND:                -0.274
REMARK  4 active torsions:
REMARK  status: ('A' for Active; 'I' for Inactive)
REMARK    1  A    between atoms: C2_2  and  C4_4 
REMARK    2  A    between atoms: C6_6  and  C7_7 
REMARK       I    between atoms: C7_7  and  N9_9 
REMARK    3  A    between atoms: C14_14  and  C15_15 
REMARK    4  A    between atoms: C15_15  and  N16_16 
ROOT
HETATM    1  C7    D T1232      37.124   3.605 -26.880  1.00  9.97     0.260 C 
HETATM    2  O8    D T1232      38.120   3.441 -27.555  1.00 12.42    -0.267 OA
HETATM    3  N9    D T1232      35.896   3.331 -27.344  1.00 13.46    -0.308 N 
HETATM    4  C10   D T1232      35.651   2.721 -28.660  1.00 13.49     0.131 C 
HETATM    5  C11   D T1232      34.235   2.236 -28.531  1.00 13.44    -0.002 A 
HETATM    6  C12   D T1232      33.475   1.498 -29.429  1.00 17.34    -0.003 A 
HETATM    7  C13   D T1232      32.171   1.157 -29.117  1.00 16.78    -0.003 A 
HETATM    8  C14   D T1232      31.609   1.550 -27.906  1.00 25.83     0.011 A 
HETATM    9  C25   D T1232      32.388   2.287 -27.018  1.00 22.06    -0.005 A 
HETATM   10  C26   D T1232      33.694   2.622 -27.333  1.00 12.57    -0.002 A 
HETATM   11  C27   D T1232      34.675   3.434 -26.533  1.00 12.00     0.131 C 
ENDROOT
BRANCH   1  12
HETATM   12  C6    D T1232      37.240   4.205 -25.522  1.00 12.21     0.081 A 
HETATM   13  C5    D T1232      37.277   5.593 -25.379  1.00 15.89     0.005 A 
HETATM   14  C4    D T1232      37.361   6.192 -24.122  1.00  9.53     0.003 A 
HETATM   15  C31   D T1232      37.461   5.344 -22.997  1.00 10.77     0.129 A 
HETATM   16  C30   D T1232      37.420   3.966 -23.136  1.00 12.43     0.055 A 
HETATM   17  O32   D T1232      37.547   5.858 -21.733  1.00 13.22    -0.190 OA
HETATM   18  C28   D T1232      37.305   3.393 -24.403  1.00 11.17     0.138 A 
HETATM   19  O29   D T1232      37.271   2.031 -24.553  1.00 12.20    -0.190 OA
BRANCH  14  20
HETATM   20  C2    D T1232      37.494   7.708 -23.973  1.00 12.98     0.024 C 
HETATM   21  C1    D T1232      38.020   8.338 -25.268  1.00 15.54     0.005 C 
HETATM   22  C3    D T1232      36.203   8.393 -23.537  1.00 14.93     0.005 C 
ENDBRANCH  14  20
ENDBRANCH   1  12
BRANCH   8  23
HETATM   23  C15   D T1232      30.180   1.200 -27.566  1.00 39.58     0.277 C 
BRANCH  23  24
HETATM   24  N16   D T1232      29.828  -0.219 -27.941  1.00 54.90     0.146 N 
HETATM   25  C18   D T1232      30.590  -1.208 -27.108  1.00 62.09     0.286 C 
HETATM   26  C19   D T1232      30.222  -2.640 -27.472  1.00 64.75     0.286 C 
HETATM   27  N20   D T1232      28.750  -2.840 -27.307  1.00 66.96     0.143 N 
HETATM   28  C22   D T1232      28.357  -4.258 -27.560  1.00 67.04     0.285 C 
HETATM   29  C23   D T1232      28.004  -1.896 -28.193  1.00 63.79     0.286 C 
HETATM   30  C24   D T1232      28.352  -0.461 -27.827  1.00 59.84     0.286 C 
ENDBRANCH  23  24
ENDBRANCH   8  23
TORSDOF 4
ENDMDL
MODEL 9
REMARK VINA RESULT:    -7.438      4.579     10.621
REMARK INTER + INTRA:          -9.451
REMARK INTER:                  -8.929
REMARK INTRA:                  -0.522
REMARK UNBOUND:                -0.274
REMARK  4 active torsions:
REMARK  status: ('A' for Active; 'I' for Inactive)
REMARK    1  A    between atoms: C2_2  and  C4_4 
REMARK    2  A    between atoms: C6_6  and  C7_7 
REMARK       I    between atoms: C7_7  and  N9_9 
REMARK    3  A    between atoms: C14_14  and  C15_15 
REMARK    4  A    between atoms: C15_15  and  N16_16 
ROOT
HETATM    1  C7    D T1232      35.475   0.610 -27.118  1.00  9.97     0.260 C 
HETATM    2  O8    D T1232      36.144  -0.202 -26.510  1.00 12.42    -0.267 OA
HETATM    3  N9    D T1232      34.220   0.347 -27.511  1.00 13.46    -0.308 N 
HETATM    4  C10   D T1232      33.511  -0.893 -27.161  1.00 13.49     0.131 C 
HETATM    5  C11   D T1232      32.078  -0.533 -27.438  1.00 13.44    -0.002 A 
HETATM    6  C12   D T1232      30.927  -1.277 -27.214  1.00 17.34    -0.003 A 
HETATM    7  C13   D T1232      29.690  -0.759 -27.553  1.00 16.78    -0.003 A 
HETATM    8  C14   D T1232      29.586   0.507 -28.121  1.00 25.83     0.011 A 
HETATM    9  C25   D T1232      30.752   1.238 -28.335  1.00 22.06    -0.005 A 
HETATM   10  C26   D T1232      31.987   0.718 -27.990  1.00 12.57    -0.002 A 
HETATM   11  C27   D T1232      33.349   1.329 -28.172  1.00 12.00     0.131 C 
ENDROOT
BRANCH   1  12
HETATM   12  C6    D T1232      36.076   1.912 -27.522  1.00 12.21     0.081 A 
HETATM   13  C5    D T1232      36.649   2.046 -28.788  1.00 15.89     0.005 A 
HETATM   14  C4    D T1232      37.200   3.256 -29.211  1.00  9.53     0.003 A 
HETATM   15  C31   D T1232      37.206   4.330 -28.293  1.00 10.77     0.129 A 
HETATM   16  C30   D T1232      36.634   4.200 -27.038  1.00 12.43     0.055 A 
HETATM   17  O32   D T1232      37.729   5.546 -28.636  1.00 13.22    -0.190 OA
HETATM   18  C28   D T1232      36.062   2.987 -26.652  1.00 11.17     0.138 A 
HETATM   19  O29   D T1232      35.500   2.844 -25.410  1.00 12.20    -0.190 OA
BRANCH  14  20
HETATM   20  C2    D T1232      37.909   3.376 -30.561  1.00 12.98     0.024 C 
HETATM   21  C1    D T1232      38.641   2.075 -30.908  1.00 15.54     0.005 C 
HETATM   22  C3    D T1232      36.982   3.784 -31.701  1.00 14.93     0.005 C 
ENDBRANCH  14  20
ENDBRANCH   1  12
BRANCH   8  23
HETATM   23  C15   D T1232      28.243   1.072 -28.513  1.00 39.58     0.277 C 
BRANCH  23  24
HETATM   24  N16   D T1232      27.219  -0.004 -28.780  1.00 54.90     0.146 N 
HETATM   25  C18   D T1232      26.355  -0.246 -27.576  1.00 62.09     0.286 C 
HETATM   26  C19   D T1232      25.310  -1.318 -27.850  1.00 64.75     0.286 C 
HETATM   27  N20   D T1232      24.473  -0.919 -29.022  1.00 66.96     0.143 N 
HETATM   28  C22   D T1232      23.371  -1.896 -29.267  1.00 67.04     0.285 C 
HETATM   29  C23   D T1232      25.336  -0.748 -30.230  1.00 63.79     0.286 C 
HETATM   30  C24   D T1232      26.374   0.333 -29.974  1.00 59.84     0.286 C 
ENDBRANCH  23  24
ENDBRANCH   8  23
TORSDOF 4
ENDMDL
