MODEL 1
REMARK VINA RESULT:    -9.307      0.000      0.000
REMARK INTER + INTRA:         -12.678
REMARK INTER:                 -12.027
REMARK INTRA:                  -0.650
REMARK UNBOUND:                -0.650
REMARK  5 active torsions:
REMARK  status: ('A' for Active; 'I' for Inactive)
REMARK    1  A    between atoms: C17_7  and  C21_10 
REMARK    2  A    between atoms: C21_10  and  O27_12 
REMARK    3  A    between atoms: O27_12  and  C15_13 
REMARK    4  A    between atoms: C14_19  and  C16_20 
REMARK    5  A    between atoms: N26_23  and  C20_25 
ROOT
HETATM    1  C15   D T9000      -3.643   1.316  10.404  1.00 32.23     0.125 A 
HETATM    2  C4    D T9000      -3.676  -0.122  10.515  1.00 32.87     0.029 A 
HETATM    3  C19   D T9000      -4.638   1.902   9.547  1.00 30.98     0.173 A 
HETATM    4  N22   D T9000      -4.669   3.302   9.395  1.00 26.96    -0.078 NA
HETATM    5  N23   D T9000      -5.571   1.192   8.864  1.00 30.39    -0.228 NA
HETATM    6  C5    D T9000      -5.574  -0.166   8.989  1.00 33.14     0.100 A 
HETATM    7  C14   D T9000      -4.648  -0.894   9.801  1.00 34.48     0.024 A 
ENDROOT
BRANCH   1   8
HETATM    8  O27   D T9000      -2.746   2.165  11.069  1.00 33.85    -0.326 OA
BRANCH   8   9
HETATM    9  C21   D T9000      -1.311   2.300  10.787  1.00 39.13     0.145 C 
HETATM   10  C1    D T9000      -1.166   2.174   9.259  1.00 37.31     0.038 C 
BRANCH   9  11
HETATM   11  C17   D T9000      -0.406   1.260  11.536  1.00 43.03     0.029 A 
HETATM   12  C13   D T9000       0.076   1.562  12.883  1.00 43.22     0.057 A 
HETATM   13 CL     D T9000      -0.302   3.039  13.729  1.00 44.26    -0.083 Cl
HETATM   14  C3    D T9000       0.900   0.626  13.574  1.00 43.32     0.013 A 
HETATM   15  C2    D T9000       1.267  -0.607  12.977  1.00 42.25     0.031 A 
HETATM   16  C12   D T9000       0.822  -0.943  11.671  1.00 45.15     0.150 A 
HETATM   17  F     D T9000       1.197  -2.125  11.149  1.00 42.99    -0.203 F 
HETATM   18  C18   D T9000      -0.015  -0.028  10.932  1.00 44.96     0.084 A 
HETATM   19 CL2    D T9000      -0.523  -0.526   9.323  1.00 59.14    -0.080 Cl
ENDBRANCH   9  11
ENDBRANCH   8   9
ENDBRANCH   1   8
BRANCH   7  20
HETATM   20  C16   D T9000      -4.681  -2.413   9.918  1.00 36.37     0.041 A 
HETATM   21  C6    D T9000      -5.685  -3.329   9.372  1.00 37.83     0.122 A 
HETATM   22  N24   D T9000      -5.365  -4.537   9.682  1.00 39.52    -0.168 NA
HETATM   23  N26   D T9000      -4.274  -4.540  10.365  1.00 39.89    -0.252 N 
HETATM   24  C7    D T9000      -3.764  -3.241  10.566  1.00 38.44     0.097 A 
BRANCH  23  25
HETATM   25  C20   D T9000      -3.664  -5.803  10.859  1.00 45.76     0.110 C 
HETATM   26  C8    D T9000      -2.545  -5.502  11.879  1.00 48.47     0.063 C 
HETATM   27  C10   D T9000      -1.930  -6.831  12.380  1.00 51.46     0.292 C 
HETATM   28  N25   D T9000      -1.443  -7.687  11.258  1.00 52.65     0.339 N 
HETATM   29  C11   D T9000      -2.496  -7.957  10.238  1.00 50.34     0.292 C 
HETATM   30  C9    D T9000      -3.119  -6.655   9.684  1.00 49.34     0.063 C 
ENDBRANCH  23  25
ENDBRANCH   7  20
TORSDOF 5
ENDMDL
MODEL 2
REMARK VINA RESULT:    -9.269      2.544      4.045
REMARK INTER + INTRA:         -12.629
REMARK INTER:                 -11.643
REMARK INTRA:                  -0.986
REMARK UNBOUND:                -0.650
REMARK  5 active torsions:
REMARK  status: ('A' for Active; 'I' for Inactive)
REMARK    1  A    between atoms: C17_7  and  C21_10 
REMARK    2  A    between atoms: C21_10  and  O27_12 
REMARK    3  A    between atoms: O27_12  and  C15_13 
REMARK    4  A    between atoms: C14_19  and  C16_20 
REMARK    5  A    between atoms: N26_23  and  C20_25 
ROOT
HETATM    1  C15   D T9000      -4.713  -2.338  10.018  1.00 32.23     0.125 A 
HETATM    2  C4    D T9000      -3.901  -3.490  10.323  1.00 32.87     0.029 A 
HETATM    3  C19   D T9000      -6.052  -2.612   9.573  1.00 30.98     0.173 A 
HETATM    4  N22   D T9000      -6.903  -1.534   9.262  1.00 26.96    -0.078 NA
HETATM    5  N23   D T9000      -6.569  -3.859   9.433  1.00 30.39    -0.228 NA
HETATM    6  C5    D T9000      -5.775  -4.929   9.728  1.00 33.14     0.100 A 
HETATM    7  C14   D T9000      -4.423  -4.817  10.180  1.00 34.48     0.024 A 
ENDROOT
BRANCH   1   8
HETATM    8  O27   D T9000      -4.307  -0.999  10.138  1.00 33.85    -0.326 OA
BRANCH   8   9
HETATM    9  C21   D T9000      -3.339  -0.473  11.109  1.00 39.13     0.145 C 
HETATM   10  C1    D T9000      -3.800   0.961  11.431  1.00 37.31     0.038 C 
BRANCH   9  11
HETATM   11  C17   D T9000      -1.850  -0.499  10.615  1.00 43.03     0.029 A 
HETATM   12  C13   D T9000      -0.898  -1.411  11.247  1.00 43.22     0.057 A 
HETATM   13 CL     D T9000      -1.323  -2.497  12.542  1.00 44.26    -0.083 Cl
HETATM   14  C3    D T9000       0.459  -1.444  10.808  1.00 43.32     0.013 A 
HETATM   15  C2    D T9000       0.910  -0.602   9.760  1.00 42.25     0.031 A 
HETATM   16  C12   D T9000       0.020   0.300   9.117  1.00 45.15     0.150 A 
HETATM   17  F     D T9000       0.496   1.078   8.129  1.00 42.99    -0.203 F 
HETATM   18  C18   D T9000      -1.363   0.368   9.527  1.00 44.96     0.084 A 
HETATM   19 CL2    D T9000      -2.395   1.511   8.675  1.00 59.14    -0.080 Cl
ENDBRANCH   9  11
ENDBRANCH   8   9
ENDBRANCH   1   8
BRANCH   7  20
HETATM   20  C16   D T9000      -3.565  -6.034  10.501  1.00 36.37     0.041 A 
HETATM   21  C6    D T9000      -2.592  -6.696   9.630  1.00 37.83     0.122 A 
HETATM   22  N24   D T9000      -2.070  -7.690  10.260  1.00 39.52    -0.168 NA
HETATM   23  N26   D T9000      -2.573  -7.773  11.442  1.00 39.89    -0.252 N 
HETATM   24  C7    D T9000      -3.529  -6.766  11.689  1.00 38.44     0.097 A 
BRANCH  23  25
HETATM   25  C20   D T9000      -2.152  -8.830  12.399  1.00 45.76     0.110 C 
HETATM   26  C8    D T9000      -3.344  -9.274  13.275  1.00 48.47     0.063 C 
HETATM   27  C10   D T9000      -2.881 -10.376  14.258  1.00 51.46     0.292 C 
HETATM   28  N25   D T9000      -1.717  -9.944  15.085  1.00 52.65     0.339 N 
HETATM   29  C11   D T9000      -0.567  -9.471  14.261  1.00 50.34     0.292 C 
HETATM   30  C9    D T9000      -0.974  -8.345  13.283  1.00 49.34     0.063 C 
ENDBRANCH  23  25
ENDBRANCH   7  20
TORSDOF 5
ENDMDL
MODEL 3
REMARK VINA RESULT:    -9.117      2.416      4.247
REMARK INTER + INTRA:         -12.433
REMARK INTER:                 -11.512
REMARK INTRA:                  -0.921
REMARK UNBOUND:                -0.650
REMARK  5 active torsions:
REMARK  status: ('A' for Active; 'I' for Inactive)
REMARK    1  A    between atoms: C17_7  and  C21_10 
REMARK    2  A    between atoms: C21_10  and  O27_12 
REMARK    3  A    between atoms: O27_12  and  C15_13 
REMARK    4  A    between atoms: C14_19  and  C16_20 
REMARK    5  A    between atoms: N26_23  and  C20_25 
ROOT
HETATM    1  C15   D T9000      -4.571  -2.340  10.223  1.00 32.23     0.125 A 
HETATM    2  C4    D T9000      -3.679  -3.318  10.795  1.00 32.87     0.029 A 
HETATM    3  C19   D T9000      -5.755  -2.860   9.595  1.00 30.98     0.173 A 
HETATM    4  N22   D T9000      -6.675  -1.961   9.019  1.00 26.96    -0.078 NA
HETATM    5  N23   D T9000      -6.061  -4.180   9.518  1.00 30.39    -0.228 NA
HETATM    6  C5    D T9000      -5.196  -5.081  10.068  1.00 33.14     0.100 A 
HETATM    7  C14   D T9000      -3.978  -4.718  10.724  1.00 34.48     0.024 A 
ENDROOT
BRANCH   1   8
HETATM    8  O27   D T9000      -4.382  -0.950  10.250  1.00 33.85    -0.326 OA
BRANCH   8   9
HETATM    9  C21   D T9000      -3.364  -0.230  11.027  1.00 39.13     0.145 C 
HETATM   10  C1    D T9000      -3.973   1.149  11.346  1.00 37.31     0.038 C 
BRANCH   9  11
HETATM   11  C17   D T9000      -1.979  -0.092  10.305  1.00 43.03     0.029 A 
HETATM   12  C13   D T9000      -1.875   0.721   9.095  1.00 43.22     0.057 A 
HETATM   13 CL     D T9000      -3.224   1.570   8.389  1.00 44.26    -0.083 Cl
HETATM   14  C3    D T9000      -0.621   0.853   8.428  1.00 43.32     0.013 A 
HETATM   15  C2    D T9000       0.541   0.204   8.918  1.00 42.25     0.031 A 
HETATM   16  C12   D T9000       0.487  -0.596  10.090  1.00 45.15     0.150 A 
HETATM   17  F     D T9000       1.616  -1.191  10.515  1.00 42.99    -0.203 F 
HETATM   18  C18   D T9000      -0.760  -0.759  10.800  1.00 44.96     0.084 A 
HETATM   19 CL2    D T9000      -0.735  -1.765  12.243  1.00 59.14    -0.080 Cl
ENDBRANCH   9  11
ENDBRANCH   8   9
ENDBRANCH   1   8
BRANCH   7  20
HETATM   20  C16   D T9000      -3.035  -5.751  11.327  1.00 36.37     0.041 A 
HETATM   21  C6    D T9000      -1.574  -5.687  11.408  1.00 37.83     0.122 A 
HETATM   22  N24   D T9000      -1.138  -6.752  11.987  1.00 39.52    -0.168 NA
HETATM   23  N26   D T9000      -2.125  -7.516  12.302  1.00 39.89    -0.252 N 
HETATM   24  C7    D T9000      -3.368  -6.967  11.925  1.00 38.44     0.097 A 
BRANCH  23  25
HETATM   25  C20   D T9000      -1.917  -8.818  12.988  1.00 45.76     0.110 C 
HETATM   26  C8    D T9000      -1.165  -9.803  12.066  1.00 48.47     0.063 C 
HETATM   27  C10   D T9000      -0.959 -11.147  12.805  1.00 51.46     0.292 C 
HETATM   28  N25   D T9000      -2.243 -11.724  13.300  1.00 52.65     0.339 N 
HETATM   29  C11   D T9000      -3.009 -10.775  14.159  1.00 50.34     0.292 C 
HETATM   30  C9    D T9000      -3.267  -9.425  13.451  1.00 49.34     0.063 C 
ENDBRANCH  23  25
ENDBRANCH   7  20
TORSDOF 5
ENDMDL
MODEL 4
REMARK VINA RESULT:    -8.960      4.468      6.992
REMARK INTER + INTRA:         -12.230
REMARK INTER:                 -11.694
REMARK INTRA:                  -0.536
REMARK UNBOUND:                -0.650
REMARK  5 active torsions:
REMARK  status: ('A' for Active; 'I' for Inactive)
REMARK    1  A    between atoms: C17_7  and  C21_10 
REMARK    2  A    between atoms: C21_10  and  O27_12 
REMARK    3  A    between atoms: O27_12  and  C15_13 
REMARK    4  A    between atoms: C14_19  and  C16_20 
REMARK    5  A    between atoms: N26_23  and  C20_25 
ROOT
HETATM    1  C15   D T9000      -1.116  -0.280  10.389  1.00 32.23     0.125 A 
HETATM    2  C4    D T9000      -0.172  -1.368  10.320  1.00 32.87     0.029 A 
HETATM    3  C19   D T9000      -0.764   0.905   9.654  1.00 30.98     0.173 A 
HETATM    4  N22   D T9000      -1.643   2.006   9.672  1.00 26.96    -0.078 NA
HETATM    5  N23   D T9000       0.373   1.042   8.927  1.00 30.39    -0.228 NA
HETATM    6  C5    D T9000       1.247  -0.005   8.884  1.00 33.14     0.100 A 
HETATM    7  C14   D T9000       1.038  -1.246   9.562  1.00 34.48     0.024 A 
ENDROOT
BRANCH   1   8
HETATM    8  O27   D T9000      -2.333  -0.300  11.087  1.00 33.85    -0.326 OA
BRANCH   8   9
HETATM    9  C21   D T9000      -3.674  -0.213  10.491  1.00 39.13     0.145 C 
HETATM   10  C1    D T9000      -4.537   0.561  11.505  1.00 37.31     0.038 C 
BRANCH   9  11
HETATM   11  C17   D T9000      -4.312  -1.601  10.136  1.00 43.03     0.029 A 
HETATM   12  C13   D T9000      -5.311  -1.683   9.072  1.00 43.22     0.057 A 
HETATM   13 CL     D T9000      -5.848  -0.304   8.151  1.00 44.26    -0.083 Cl
HETATM   14  C3    D T9000      -5.901  -2.939   8.740  1.00 43.32     0.013 A 
HETATM   15  C2    D T9000      -5.534  -4.124   9.427  1.00 42.25     0.031 A 
HETATM   16  C12   D T9000      -4.568  -4.092  10.468  1.00 45.15     0.150 A 
HETATM   17  F     D T9000      -4.255  -5.242  11.090  1.00 42.99    -0.203 F 
HETATM   18  C18   D T9000      -3.943  -2.844  10.839  1.00 44.96     0.084 A 
HETATM   19 CL2    D T9000      -2.756  -2.897  12.136  1.00 59.14    -0.080 Cl
ENDBRANCH   9  11
ENDBRANCH   8   9
ENDBRANCH   1   8
BRANCH   7  20
HETATM   20  C16   D T9000       2.036  -2.395   9.491  1.00 36.37     0.041 A 
HETATM   21  C6    D T9000       1.753  -3.809   9.240  1.00 37.83     0.122 A 
HETATM   22  N24   D T9000       2.859  -4.469   9.258  1.00 39.52    -0.168 NA
HETATM   23  N26   D T9000       3.843  -3.671   9.488  1.00 39.89    -0.252 N 
HETATM   24  C7    D T9000       3.422  -2.335   9.650  1.00 38.44     0.097 A 
BRANCH  23  25
HETATM   25  C20   D T9000       5.245  -4.160   9.562  1.00 45.76     0.110 C 
HETATM   26  C8    D T9000       5.378  -5.268  10.629  1.00 48.47     0.063 C 
HETATM   27  C10   D T9000       6.844  -5.760  10.683  1.00 51.46     0.292 C 
HETATM   28  N25   D T9000       7.808  -4.645  10.919  1.00 52.65     0.339 N 
HETATM   29  C11   D T9000       7.670  -3.542   9.925  1.00 50.34     0.292 C 
HETATM   30  C9    D T9000       6.225  -2.995   9.857  1.00 49.34     0.063 C 
ENDBRANCH  23  25
ENDBRANCH   7  20
TORSDOF 5
ENDMDL
MODEL 5
REMARK VINA RESULT:    -8.949      1.500      1.867
REMARK INTER + INTRA:         -12.215
REMARK INTER:                 -11.093
REMARK INTRA:                  -1.122
REMARK UNBOUND:                -0.650
REMARK  5 active torsions:
REMARK  status: ('A' for Active; 'I' for Inactive)
REMARK    1  A    between atoms: C17_7  and  C21_10 
REMARK    2  A    between atoms: C21_10  and  O27_12 
REMARK    3  A    between atoms: O27_12  and  C15_13 
REMARK    4  A    between atoms: C14_19  and  C16_20 
REMARK    5  A    between atoms: N26_23  and  C20_25 
ROOT
HETATM    1  C15   D T9000      -2.904   0.315  10.304  1.00 32.23     0.125 A 
HETATM    2  C4    D T9000      -2.912  -1.122  10.418  1.00 32.87     0.029 A 
HETATM    3  C19   D T9000      -4.189   0.957  10.358  1.00 30.98     0.173 A 
HETATM    4  N22   D T9000      -4.257   2.361  10.258  1.00 26.96    -0.078 NA
HETATM    5  N23   D T9000      -5.366   0.297  10.505  1.00 30.39    -0.228 NA
HETATM    6  C5    D T9000      -5.340  -1.063  10.609  1.00 33.14     0.100 A 
HETATM    7  C14   D T9000      -4.142  -1.842  10.571  1.00 34.48     0.024 A 
ENDROOT
BRANCH   1   8
HETATM    8  O27   D T9000      -1.760   1.116  10.167  1.00 33.85    -0.326 OA
BRANCH   8   9
HETATM    9  C21   D T9000      -0.736   1.346  11.195  1.00 39.13     0.145 C 
HETATM   10  C1    D T9000      -0.173   2.754  10.924  1.00 37.31     0.038 C 
BRANCH   9  11
HETATM   11  C17   D T9000       0.403   0.268  11.223  1.00 43.03     0.029 A 
HETATM   12  C13   D T9000       0.996  -0.121  12.502  1.00 43.22     0.057 A 
HETATM   13 CL     D T9000       0.503   0.552  14.032  1.00 44.26    -0.083 Cl
HETATM   14  C3    D T9000       2.033  -1.098  12.541  1.00 43.32     0.013 A 
HETATM   15  C2    D T9000       2.508  -1.709  11.353  1.00 42.25     0.031 A 
HETATM   16  C12   D T9000       1.962  -1.363  10.088  1.00 45.15     0.150 A 
HETATM   17  F     D T9000       2.447  -1.971   8.990  1.00 42.99    -0.203 F 
HETATM   18  C18   D T9000       0.909  -0.379   9.998  1.00 44.96     0.084 A 
HETATM   19 CL2    D T9000       0.290  -0.013   8.393  1.00 59.14    -0.080 Cl
ENDBRANCH   9  11
ENDBRANCH   8   9
ENDBRANCH   1   8
BRANCH   7  20
HETATM   20  C16   D T9000      -4.150  -3.361  10.690  1.00 36.37     0.041 A 
HETATM   21  C6    D T9000      -5.241  -4.277  10.352  1.00 37.83     0.122 A 
HETATM   22  N24   D T9000      -4.866  -5.486  10.591  1.00 39.52    -0.168 NA
HETATM   23  N26   D T9000      -3.661  -5.489  11.045  1.00 39.89    -0.252 N 
HETATM   24  C7    D T9000      -3.122  -4.189  11.143  1.00 38.44     0.097 A 
BRANCH  23  25
HETATM   25  C20   D T9000      -2.965  -6.752  11.407  1.00 45.76     0.110 C 
HETATM   26  C8    D T9000      -3.845  -7.607  12.344  1.00 48.47     0.063 C 
HETATM   27  C10   D T9000      -3.100  -8.916  12.701  1.00 51.46     0.292 C 
HETATM   28  N25   D T9000      -1.754  -8.657  13.290  1.00 52.65     0.339 N 
HETATM   29  C11   D T9000      -0.899  -7.797  12.422  1.00 50.34     0.292 C 
HETATM   30  C9    D T9000      -1.590  -6.461  12.063  1.00 49.34     0.063 C 
ENDBRANCH  23  25
ENDBRANCH   7  20
TORSDOF 5
ENDMDL
MODEL 6
REMARK VINA RESULT:    -8.928      1.490      2.362
REMARK INTER + INTRA:         -12.188
REMARK INTER:                 -11.155
REMARK INTRA:                  -1.033
REMARK UNBOUND:                -0.650
REMARK  5 active torsions:
REMARK  status: ('A' for Active; 'I' for Inactive)
REMARK    1  A    between atoms: C17_7  and  C21_10 
REMARK    2  A    between atoms: C21_10  and  O27_12 
REMARK    3  A    between atoms: O27_12  and  C15_13 
REMARK    4  A    between atoms: C14_19  and  C16_20 
REMARK    5  A    between atoms: N26_23  and  C20_25 
ROOT
HETATM    1  C15   D T9000      -2.985   0.621  10.167  1.00 32.23     0.125 A 
HETATM    2  C4    D T9000      -2.853  -0.796  10.399  1.00 32.87     0.029 A 
HETATM    3  C19   D T9000      -4.327   1.138  10.185  1.00 30.98     0.173 A 
HETATM    4  N22   D T9000      -4.532   2.515   9.970  1.00 26.96    -0.078 NA
HETATM    5  N23   D T9000      -5.433   0.382  10.403  1.00 30.39    -0.228 NA
HETATM    6  C5    D T9000      -5.274  -0.956  10.619  1.00 33.14     0.100 A 
HETATM    7  C14   D T9000      -4.005  -1.616  10.629  1.00 34.48     0.024 A 
ENDROOT
BRANCH   1   8
HETATM    8  O27   D T9000      -1.926   1.515   9.948  1.00 33.85    -0.326 OA
BRANCH   8   9
HETATM    9  C21   D T9000      -0.817   1.786  10.873  1.00 39.13     0.145 C 
HETATM   10  C1    D T9000      -0.233   3.146  10.446  1.00 37.31     0.038 C 
BRANCH   9  11
HETATM   11  C17   D T9000       0.286   0.671  10.902  1.00 43.03     0.029 A 
HETATM   12  C13   D T9000       0.695   0.030   9.654  1.00 43.22     0.057 A 
HETATM   13 CL     D T9000       0.019   0.436   8.099  1.00 44.26    -0.083 Cl
HETATM   14  C3    D T9000       1.695  -0.986   9.667  1.00 43.32     0.013 A 
HETATM   15  C2    D T9000       2.311  -1.393  10.878  1.00 42.25     0.031 A 
HETATM   16  C12   D T9000       1.945  -0.797  12.115  1.00 45.15     0.150 A 
HETATM   17  F     D T9000       2.557  -1.217  13.236  1.00 42.99    -0.203 F 
HETATM   18  C18   D T9000       0.937   0.236  12.152  1.00 44.96     0.084 A 
HETATM   19 CL2    D T9000       0.549   0.920  13.726  1.00 59.14    -0.080 Cl
ENDBRANCH   9  11
ENDBRANCH   8   9
ENDBRANCH   1   8
BRANCH   7  20
HETATM   20  C16   D T9000      -3.864  -3.113  10.873  1.00 36.37     0.041 A 
HETATM   21  C6    D T9000      -4.772  -4.177  10.441  1.00 37.83     0.122 A 
HETATM   22  N24   D T9000      -4.311  -5.312  10.840  1.00 39.52    -0.168 NA
HETATM   23  N26   D T9000      -3.210  -5.136  11.483  1.00 39.89    -0.252 N 
HETATM   24  C7    D T9000      -2.844  -3.776  11.557  1.00 38.44     0.097 A 
BRANCH  23  25
HETATM   25  C20   D T9000      -2.450  -6.276  12.060  1.00 45.76     0.110 C 
HETATM   26  C8    D T9000      -1.139  -6.505  11.277  1.00 48.47     0.063 C 
HETATM   27  C10   D T9000      -0.366  -7.693  11.900  1.00 51.46     0.292 C 
HETATM   28  N25   D T9000      -1.194  -8.933  11.968  1.00 52.65     0.339 N 
HETATM   29  C11   D T9000      -2.486  -8.726  12.683  1.00 50.34     0.292 C 
HETATM   30  C9    D T9000      -3.310  -7.567  12.076  1.00 49.34     0.063 C 
ENDBRANCH  23  25
ENDBRANCH   7  20
TORSDOF 5
ENDMDL
MODEL 7
REMARK VINA RESULT:    -8.843      2.031      2.586
REMARK INTER + INTRA:         -12.078
REMARK INTER:                 -11.615
REMARK INTRA:                  -0.463
REMARK UNBOUND:                -0.650
REMARK  5 active torsions:
REMARK  status: ('A' for Active; 'I' for Inactive)
REMARK    1  A    between atoms: C17_7  and  C21_10 
REMARK    2  A    between atoms: C21_10  and  O27_12 
REMARK    3  A    between atoms: O27_12  and  C15_13 
REMARK    4  A    between atoms: C14_19  and  C16_20 
REMARK    5  A    between atoms: N26_23  and  C20_25 
ROOT
HETATM    1  C15   D T9000      -3.311   0.486  10.547  1.00 32.23     0.125 A 
HETATM    2  C4    D T9000      -3.271  -0.948  10.694  1.00 32.87     0.029 A 
HETATM    3  C19   D T9000      -4.549   1.033  10.063  1.00 30.98     0.173 A 
HETATM    4  N22   D T9000      -4.662   2.428   9.900  1.00 26.96    -0.078 NA
HETATM    5  N23   D T9000      -5.641   0.291   9.750  1.00 30.39    -0.228 NA
HETATM    6  C5    D T9000      -5.571  -1.063   9.898  1.00 33.14     0.100 A 
HETATM    7  C14   D T9000      -4.410  -1.754  10.367  1.00 34.48     0.024 A 
ENDROOT
BRANCH   1   8
HETATM    8  O27   D T9000      -2.262   1.366  10.853  1.00 33.85    -0.326 OA
BRANCH   8   9
HETATM    9  C21   D T9000      -1.271   1.895   9.905  1.00 39.13     0.145 C 
HETATM   10  C1    D T9000      -1.448   1.079   8.611  1.00 37.31     0.038 C 
BRANCH   9  11
HETATM   11  C17   D T9000       0.209   1.840  10.422  1.00 43.03     0.029 A 
HETATM   12  C13   D T9000       0.827   0.544  10.698  1.00 43.22     0.057 A 
HETATM   13 CL     D T9000       0.006  -0.978  10.482  1.00 44.26    -0.083 Cl
HETATM   14  C3    D T9000       2.172   0.480  11.169  1.00 43.32     0.013 A 
HETATM   15  C2    D T9000       2.931   1.659  11.379  1.00 42.25     0.031 A 
HETATM   16  C12   D T9000       2.371   2.939  11.124  1.00 45.15     0.150 A 
HETATM   17  F     D T9000       3.132   4.028  11.338  1.00 42.99    -0.203 F 
HETATM   18  C18   D T9000       1.014   3.055  10.645  1.00 44.96     0.084 A 
HETATM   19 CL2    D T9000       0.402   4.679  10.353  1.00 59.14    -0.080 Cl
ENDBRANCH   9  11
ENDBRANCH   8   9
ENDBRANCH   1   8
BRANCH   7  20
HETATM   20  C16   D T9000      -4.366  -3.269  10.521  1.00 36.37     0.041 A 
HETATM   21  C6    D T9000      -5.438  -4.226  10.238  1.00 37.83     0.122 A 
HETATM   22  N24   D T9000      -5.017  -5.417  10.493  1.00 39.52    -0.168 NA
HETATM   23  N26   D T9000      -3.800  -5.372  10.909  1.00 39.89    -0.252 N 
HETATM   24  C7    D T9000      -3.300  -4.054  10.961  1.00 38.44     0.097 A 
BRANCH  23  25
HETATM   25  C20   D T9000      -3.054  -6.604  11.278  1.00 45.76     0.110 C 
HETATM   26  C8    D T9000      -3.890  -7.477  12.239  1.00 48.47     0.063 C 
HETATM   27  C10   D T9000      -3.093  -8.753  12.604  1.00 51.46     0.292 C 
HETATM   28  N25   D T9000      -1.748  -8.438  13.169  1.00 52.65     0.339 N 
HETATM   29  C11   D T9000      -0.937  -7.560  12.277  1.00 50.34     0.292 C 
HETATM   30  C9    D T9000      -1.681  -6.255  11.909  1.00 49.34     0.063 C 
ENDBRANCH  23  25
ENDBRANCH   7  20
TORSDOF 5
ENDMDL
MODEL 8
REMARK VINA RESULT:    -8.756      5.063      9.282
REMARK INTER + INTRA:         -11.966
REMARK INTER:                 -11.122
REMARK INTRA:                  -0.844
REMARK UNBOUND:                -0.650
REMARK  5 active torsions:
REMARK  status: ('A' for Active; 'I' for Inactive)
REMARK    1  A    between atoms: C17_7  and  C21_10 
REMARK    2  A    between atoms: C21_10  and  O27_12 
REMARK    3  A    between atoms: O27_12  and  C15_13 
REMARK    4  A    between atoms: C14_19  and  C16_20 
REMARK    5  A    between atoms: N26_23  and  C20_25 
ROOT
HETATM    1  C15   D T9000       0.346  -1.935  10.033  1.00 32.23     0.125 A 
HETATM    2  C4    D T9000       0.674  -0.532  10.101  1.00 32.87     0.029 A 
HETATM    3  C19   D T9000       1.407  -2.809   9.613  1.00 30.98     0.173 A 
HETATM    4  N22   D T9000       1.159  -4.193   9.528  1.00 26.96    -0.078 NA
HETATM    5  N23   D T9000       2.657  -2.391   9.289  1.00 30.39    -0.228 NA
HETATM    6  C5    D T9000       2.935  -1.058   9.362  1.00 33.14     0.100 A 
HETATM    7  C14   D T9000       1.986  -0.066   9.761  1.00 34.48     0.024 A 
ENDROOT
BRANCH   1   8
HETATM    8  O27   D T9000      -0.898  -2.498  10.358  1.00 33.85    -0.326 OA
BRANCH   8   9
HETATM    9  C21   D T9000      -1.871  -1.953  11.314  1.00 39.13     0.145 C 
HETATM   10  C1    D T9000      -1.841  -2.895  12.532  1.00 37.31     0.038 C 
BRANCH   9  11
HETATM   11  C17   D T9000      -3.324  -1.803  10.740  1.00 43.03     0.029 A 
HETATM   12  C13   D T9000      -3.908  -0.471  10.597  1.00 43.22     0.057 A 
HETATM   13 CL     D T9000      -3.072   0.996  11.030  1.00 44.26    -0.083 Cl
HETATM   14  C3    D T9000      -5.228  -0.321  10.078  1.00 43.32     0.013 A 
HETATM   15  C2    D T9000      -5.996  -1.450   9.694  1.00 42.25     0.031 A 
HETATM   16  C12   D T9000      -5.469  -2.763   9.816  1.00 45.15     0.150 A 
HETATM   17  F     D T9000      -6.236  -3.801   9.438  1.00 42.99    -0.203 F 
HETATM   18  C18   D T9000      -4.137  -2.965  10.335  1.00 44.96     0.084 A 
HETATM   19 CL2    D T9000      -3.564  -4.624  10.449  1.00 59.14    -0.080 Cl
ENDBRANCH   9  11
ENDBRANCH   8   9
ENDBRANCH   1   8
BRANCH   7  20
HETATM   20  C16   D T9000       2.332   1.416   9.831  1.00 36.37     0.041 A 
HETATM   21  C6    D T9000       1.641   2.460  10.591  1.00 37.83     0.122 A 
HETATM   22  N24   D T9000       2.233   3.586  10.394  1.00 39.52    -0.168 NA
HETATM   23  N26   D T9000       3.231   3.424   9.599  1.00 39.89    -0.252 N 
HETATM   24  C7    D T9000       3.376   2.082   9.187  1.00 38.44     0.097 A 
BRANCH  23  25
HETATM   25  C20   D T9000       4.102   4.559   9.194  1.00 45.76     0.110 C 
HETATM   26  C8    D T9000       4.578   4.384   7.736  1.00 48.47     0.063 C 
HETATM   27  C10   D T9000       5.478   5.580   7.339  1.00 51.46     0.292 C 
HETATM   28  N25   D T9000       6.624   5.761   8.278  1.00 52.65     0.339 N 
HETATM   29  C11   D T9000       6.191   5.890   9.699  1.00 50.34     0.292 C 
HETATM   30  C9    D T9000       5.313   4.701  10.152  1.00 49.34     0.063 C 
ENDBRANCH  23  25
ENDBRANCH   7  20
TORSDOF 5
ENDMDL
MODEL 9
REMARK VINA RESULT:    -8.440      3.397      5.426
REMARK INTER + INTRA:         -11.557
REMARK INTER:                 -11.153
REMARK INTRA:                  -0.404
REMARK UNBOUND:                -0.650
REMARK  5 active torsions:
REMARK  status: ('A' for Active; 'I' for Inactive)
REMARK    1  A    between atoms: C17_7  and  C21_10 
REMARK    2  A    between atoms: C21_10  and  O27_12 
REMARK    3  A    between atoms: O27_12  and  C15_13 
REMARK    4  A    between atoms: C14_19  and  C16_20 
REMARK    5  A    between atoms: N26_23  and  C20_25 
ROOT
HETATM    1  C15   D T9000       0.114  -0.552   9.508  1.00 32.23     0.125 A 
HETATM    2  C4    D T9000      -0.153  -1.887   9.982  1.00 32.87     0.029 A 
HETATM    3  C19   D T9000       1.495  -0.155   9.492  1.00 30.98     0.173 A 
HETATM    4  N22   D T9000       1.831   1.136   9.036  1.00 26.96    -0.078 NA
HETATM    5  N23   D T9000       2.522  -0.949   9.888  1.00 30.39    -0.228 NA
HETATM    6  C5    D T9000       2.237  -2.206  10.333  1.00 33.14     0.100 A 
HETATM    7  C14   D T9000       0.914  -2.744  10.409  1.00 34.48     0.024 A 
ENDROOT
BRANCH   1   8
HETATM    8  O27   D T9000      -0.851   0.361   9.054  1.00 33.85    -0.326 OA
BRANCH   8   9
HETATM    9  C21   D T9000      -1.819   1.084   9.889  1.00 39.13     0.145 C 
HETATM   10  C1    D T9000      -1.491   0.700  11.344  1.00 37.31     0.038 C 
BRANCH   9  11
HETATM   11  C17   D T9000      -3.320   0.787   9.541  1.00 43.03     0.029 A 
HETATM   12  C13   D T9000      -4.128   1.821   8.896  1.00 43.22     0.057 A 
HETATM   13 CL     D T9000      -3.514   3.397   8.476  1.00 44.26    -0.083 Cl
HETATM   14  C3    D T9000      -5.494   1.564   8.576  1.00 43.32     0.013 A 
HETATM   15  C2    D T9000      -6.093   0.314   8.874  1.00 42.25     0.031 A 
HETATM   16  C12   D T9000      -5.347  -0.719   9.501  1.00 45.15     0.150 A 
HETATM   17  F     D T9000      -5.960  -1.887   9.763  1.00 42.99    -0.203 F 
HETATM   18  C18   D T9000      -3.960  -0.507   9.843  1.00 44.96     0.084 A 
HETATM   19 CL2    D T9000      -3.111  -1.841  10.614  1.00 59.14    -0.080 Cl
ENDBRANCH   9  11
ENDBRANCH   8   9
ENDBRANCH   1   8
BRANCH   7  20
HETATM   20  C16   D T9000       0.631  -4.154  10.911  1.00 36.37     0.041 A 
HETATM   21  C6    D T9000       1.557  -5.061  11.593  1.00 37.83     0.122 A 
HETATM   22  N24   D T9000       0.947  -6.164  11.859  1.00 39.52    -0.168 NA
HETATM   23  N26   D T9000      -0.269  -6.104  11.440  1.00 39.89    -0.252 N 
HETATM   24  C7    D T9000      -0.564  -4.869  10.826  1.00 38.44     0.097 A 
BRANCH  23  25
HETATM   25  C20   D T9000      -1.213  -7.239  11.615  1.00 45.76     0.110 C 
HETATM   26  C8    D T9000      -2.620  -6.723  11.986  1.00 48.47     0.063 C 
HETATM   27  C10   D T9000      -3.582  -7.923  12.158  1.00 51.46     0.292 C 
HETATM   28  N25   D T9000      -3.077  -8.916  13.150  1.00 52.65     0.339 N 
HETATM   29  C11   D T9000      -1.701  -9.399  12.835  1.00 50.34     0.292 C 
HETATM   30  C9    D T9000      -0.695  -8.235  12.685  1.00 49.34     0.063 C 
ENDBRANCH  23  25
ENDBRANCH   7  20
TORSDOF 5
ENDMDL
