MODEL 1
REMARK VINA RESULT:    -8.565      0.000      0.000
REMARK INTER + INTRA:         -13.077
REMARK INTER:                 -12.070
REMARK INTRA:                  -1.007
REMARK UNBOUND:                -1.007
REMARK  7 active torsions:
REMARK  status: ('A' for Active; 'I' for Inactive)
REMARK    1  A    between atoms: C22_10  and  C19_16 
REMARK       I    between atoms: C22_10  and  N25_19 
REMARK    2  A    between atoms: C12_12  and  C18_15 
REMARK    3  A    between atoms: N25_19  and  C37_23 
REMARK    4  A    between atoms: C37_23  and  C38_24 
REMARK    5  A    between atoms: C38_24  and  N4_25 
REMARK    6  A    between atoms: N4_25  and  C39_26 
REMARK    7  A    between atoms: N4_25  and  C40_27 
ROOT
HETATM    1  C4    D T1294       8.902  -2.900   0.147  1.00 32.29     0.052 C 
HETATM    2  C13   D T1294       8.808  -3.482  -3.577  1.00 33.66     0.002 A 
HETATM    3  C3    D T1294       8.902  -4.044  -5.003  1.00 26.27     0.033 C 
HETATM    4  C14   D T1294       8.799  -2.910  -1.339  1.00 36.57     0.064 A 
HETATM    5  C18   D T1294       8.427  -2.120  -3.351  1.00 31.41     0.077 A 
HETATM    6  C19   D T1294       9.094  -3.972  -2.300  1.00 39.79     0.069 A 
HETATM    7  N23   D T1294       8.409  -1.868  -2.037  1.00 32.77    -0.250 NA
ENDROOT
BRANCH   5   8
HETATM    8  C12   D T1294       8.140  -1.090  -4.497  1.00 29.19     0.024 C 
HETATM    9  C20   D T1294       8.959  -0.045  -4.934  1.00 28.62     0.061 A 
HETATM   10  C17   D T1294       8.623   0.781  -6.019  1.00 28.15     0.025 A 
HETATM   11  C21   D T1294      10.241   0.442  -4.490  1.00 24.63     0.279 A 
HETATM   12  C7    D T1294       7.477   0.757  -6.865  1.00 25.53     0.031 A 
HETATM   13  C16   D T1294       9.695   1.743  -6.207  1.00 25.62     0.085 A 
HETATM   14  C15   D T1294       7.415   1.704  -7.902  1.00 28.19     0.140 A 
HETATM   15  C5    D T1294       8.484   2.697  -8.150  1.00 25.66     0.031 A 
HETATM   16  F29   D T1294       6.419   1.721  -8.661  1.00 36.26    -0.204 F 
HETATM   17  C6    D T1294       9.563   2.758  -7.337  1.00 26.69     0.021 A 
HETATM   18  N24   D T1294      10.716   1.524  -5.228  1.00 23.74    -0.208 NA
HETATM   19  O27   D T1294      10.823   0.010  -3.557  1.00 23.40    -0.265 OA
ENDBRANCH   5   8
BRANCH   6  20
HETATM   20  C22   D T1294       9.607  -5.258  -1.868  1.00 51.05     0.280 C 
HETATM   21  N25   D T1294       8.663  -6.168  -1.631  1.00 55.83    -0.209 NA
HETATM   22  O28   D T1294      10.766  -5.533  -1.776  1.00 56.66    -0.265 OA
BRANCH  21  23
HETATM   23  C37   D T1294       8.905  -7.474  -1.227  1.00 58.65     0.101 C 
BRANCH  23  24
HETATM   24  C38   D T1294       8.896  -8.255  -2.530  1.00 62.48     0.153 C 
BRANCH  24  25
HETATM   25  N4    D T1294       7.670  -9.020  -2.980  1.00 67.11    -0.327 N 
BRANCH  25  26
HETATM   26  C39   D T1294       7.687  -8.998  -4.549  1.00 68.16     0.049 C 
HETATM   27  C42   D T1294       8.773  -8.214  -5.439  1.00 67.52     0.051 C 
ENDBRANCH  25  26
BRANCH  25  28
HETATM   28  C40   D T1294       6.301  -8.880  -2.067  1.00 67.42     0.049 C 
HETATM   29  C41   D T1294       4.815  -8.980  -2.492  1.00 66.32     0.051 C 
ENDBRANCH  25  28
ENDBRANCH  24  25
ENDBRANCH  23  24
ENDBRANCH  21  23
ENDBRANCH   6  20
TORSDOF 7
ENDMDL
MODEL 2
REMARK VINA RESULT:    -7.878      1.580      2.819
REMARK INTER + INTRA:         -12.109
REMARK INTER:                 -11.176
REMARK INTRA:                  -0.933
REMARK UNBOUND:                -1.007
REMARK  7 active torsions:
REMARK  status: ('A' for Active; 'I' for Inactive)
REMARK    1  A    between atoms: C22_10  and  C19_16 
REMARK       I    between atoms: C22_10  and  N25_19 
REMARK    2  A    between atoms: C12_12  and  C18_15 
REMARK    3  A    between atoms: N25_19  and  C37_23 
REMARK    4  A    between atoms: C37_23  and  C38_24 
REMARK    5  A    between atoms: C38_24  and  N4_25 
REMARK    6  A    between atoms: N4_25  and  C39_26 
REMARK    7  A    between atoms: N4_25  and  C40_27 
ROOT
HETATM    1  C4    D T1294       9.543  -5.279  -4.606  1.00 32.29     0.052 C 
HETATM    2  C13   D T1294       8.752  -1.749  -3.546  1.00 33.66     0.002 A 
HETATM    3  C3    D T1294       8.492  -0.442  -2.782  1.00 26.27     0.033 C 
HETATM    4  C14   D T1294       9.182  -3.847  -4.409  1.00 36.57     0.064 A 
HETATM    5  C18   D T1294       8.529  -1.827  -4.959  1.00 31.41     0.077 A 
HETATM    6  C19   D T1294       9.120  -3.048  -3.186  1.00 39.79     0.069 A 
HETATM    7  N23   D T1294       8.830  -3.055  -5.395  1.00 32.77    -0.250 NA
ENDROOT
BRANCH   5   8
HETATM    8  C12   D T1294       7.959  -0.649  -5.821  1.00 29.19     0.024 C 
HETATM    9  C20   D T1294       8.608   0.533  -6.192  1.00 28.62     0.061 A 
HETATM   10  C17   D T1294       8.014   1.496  -7.024  1.00 28.15     0.025 A 
HETATM   11  C21   D T1294       9.916   1.062  -5.899  1.00 24.63     0.279 A 
HETATM   12  C7    D T1294       6.731   1.504  -7.642  1.00 25.53     0.031 A 
HETATM   13  C16   D T1294       8.964   2.578  -7.214  1.00 25.62     0.085 A 
HETATM   14  C15   D T1294       6.407   2.605  -8.453  1.00 28.19     0.140 A 
HETATM   15  C5    D T1294       7.340   3.728  -8.695  1.00 25.66     0.031 A 
HETATM   16  F29   D T1294       5.284   2.653  -9.006  1.00 36.26    -0.204 F 
HETATM   17  C6    D T1294       8.549   3.755  -8.091  1.00 26.69     0.021 A 
HETATM   18  N24   D T1294      10.167   2.297  -6.492  1.00 23.74    -0.208 NA
HETATM   19  O27   D T1294      10.694   0.535  -5.183  1.00 23.40    -0.265 OA
ENDBRANCH   5   8
BRANCH   6  20
HETATM   20  C22   D T1294       9.398  -3.632  -1.888  1.00 51.05     0.280 C 
HETATM   21  N25   D T1294       8.418  -4.404  -1.419  1.00 55.83    -0.209 NA
HETATM   22  O28   D T1294      10.422  -3.502  -1.288  1.00 56.66    -0.265 OA
BRANCH  21  23
HETATM   23  C37   D T1294       8.457  -5.086  -0.211  1.00 58.65     0.101 C 
BRANCH  23  24
HETATM   24  C38   D T1294       7.872  -6.446  -0.553  1.00 62.48     0.153 C 
BRANCH  24  25
HETATM   25  N4    D T1294       8.635  -7.439  -1.402  1.00 67.11    -0.327 N 
BRANCH  25  26
HETATM   26  C39   D T1294       7.735  -8.721  -1.498  1.00 68.16     0.049 C 
HETATM   27  C42   D T1294       6.149  -8.705  -1.765  1.00 67.52     0.051 C 
ENDBRANCH  25  26
BRANCH  25  28
HETATM   28  C40   D T1294      10.280  -7.471  -1.253  1.00 67.42     0.049 C 
HETATM   29  C41   D T1294      11.168  -8.288  -0.282  1.00 66.32     0.051 C 
ENDBRANCH  25  28
ENDBRANCH  24  25
ENDBRANCH  23  24
ENDBRANCH  21  23
ENDBRANCH   6  20
TORSDOF 7
ENDMDL
MODEL 3
REMARK VINA RESULT:    -7.859      1.939      2.921
REMARK INTER + INTRA:         -12.082
REMARK INTER:                 -11.124
REMARK INTRA:                  -0.958
REMARK UNBOUND:                -1.007
REMARK  7 active torsions:
REMARK  status: ('A' for Active; 'I' for Inactive)
REMARK    1  A    between atoms: C22_10  and  C19_16 
REMARK       I    between atoms: C22_10  and  N25_19 
REMARK    2  A    between atoms: C12_12  and  C18_15 
REMARK    3  A    between atoms: N25_19  and  C37_23 
REMARK    4  A    between atoms: C37_23  and  C38_24 
REMARK    5  A    between atoms: C38_24  and  N4_25 
REMARK    6  A    between atoms: N4_25  and  C39_26 
REMARK    7  A    between atoms: N4_25  and  C40_27 
ROOT
HETATM    1  C4    D T1294       8.757  -3.247  -0.039  1.00 32.29     0.052 C 
HETATM    2  C13   D T1294       8.993  -3.593  -3.786  1.00 33.66     0.002 A 
HETATM    3  C3    D T1294       9.245  -4.051  -5.230  1.00 26.27     0.033 C 
HETATM    4  C14   D T1294       8.766  -3.169  -1.527  1.00 36.57     0.064 A 
HETATM    5  C18   D T1294       8.471  -2.287  -3.513  1.00 31.41     0.077 A 
HETATM    6  C19   D T1294       9.228  -4.138  -2.520  1.00 39.79     0.069 A 
HETATM    7  N23   D T1294       8.333  -2.124  -2.192  1.00 32.77    -0.250 NA
ENDROOT
BRANCH   5   8
HETATM    8  C12   D T1294       8.176  -1.215  -4.617  1.00 29.19     0.024 C 
HETATM    9  C20   D T1294       8.957  -0.111  -4.970  1.00 28.62     0.061 A 
HETATM   10  C17   D T1294       8.620   0.752  -6.025  1.00 28.15     0.025 A 
HETATM   11  C21   D T1294      10.197   0.414  -4.453  1.00 24.63     0.279 A 
HETATM   12  C7    D T1294       7.508   0.717  -6.915  1.00 25.53     0.031 A 
HETATM   13  C16   D T1294       9.649   1.772  -6.123  1.00 25.62     0.085 A 
HETATM   14  C15   D T1294       7.437   1.712  -7.905  1.00 28.19     0.140 A 
HETATM   15  C5    D T1294       8.463   2.766  -8.062  1.00 25.66     0.031 A 
HETATM   16  F29   D T1294       6.469   1.720  -8.700  1.00 36.26    -0.204 F 
HETATM   17  C6    D T1294       9.507   2.836  -7.206  1.00 26.69     0.021 A 
HETATM   18  N24   D T1294      10.643   1.553  -5.118  1.00 23.74    -0.208 NA
HETATM   19  O27   D T1294      10.765  -0.038  -3.521  1.00 23.40    -0.265 OA
ENDBRANCH   5   8
BRANCH   6  20
HETATM   20  C22   D T1294       9.826  -5.398  -2.124  1.00 51.05     0.280 C 
HETATM   21  N25   D T1294      10.801  -5.278  -1.223  1.00 55.83    -0.209 NA
HETATM   22  O28   D T1294       9.468  -6.472  -2.506  1.00 56.66    -0.265 OA
BRANCH  21  23
HETATM   23  C37   D T1294      11.509  -6.339  -0.677  1.00 58.65     0.101 C 
BRANCH  23  24
HETATM   24  C38   D T1294      11.107  -6.317   0.788  1.00 62.48     0.153 C 
BRANCH  24  25
HETATM   25  N4    D T1294       9.729  -6.754   1.232  1.00 67.11    -0.327 N 
BRANCH  25  26
HETATM   26  C39   D T1294       9.603  -6.350   2.743  1.00 68.16     0.049 C 
HETATM   27  C42   D T1294       9.539  -4.836   3.281  1.00 67.52     0.051 C 
ENDBRANCH  25  26
BRANCH  25  28
HETATM   28  C40   D T1294       9.125  -8.152   0.594  1.00 67.42     0.049 C 
HETATM   29  C41   D T1294       7.711  -8.456   0.037  1.00 66.32     0.051 C 
ENDBRANCH  25  28
ENDBRANCH  24  25
ENDBRANCH  23  24
ENDBRANCH  21  23
ENDBRANCH   6  20
TORSDOF 7
ENDMDL
MODEL 4
REMARK VINA RESULT:    -7.512      2.641      4.995
REMARK INTER + INTRA:         -11.593
REMARK INTER:                 -10.627
REMARK INTRA:                  -0.966
REMARK UNBOUND:                -1.007
REMARK  7 active torsions:
REMARK  status: ('A' for Active; 'I' for Inactive)
REMARK    1  A    between atoms: C22_10  and  C19_16 
REMARK       I    between atoms: C22_10  and  N25_19 
REMARK    2  A    between atoms: C12_12  and  C18_15 
REMARK    3  A    between atoms: N25_19  and  C37_23 
REMARK    4  A    between atoms: C37_23  and  C38_24 
REMARK    5  A    between atoms: C38_24  and  N4_25 
REMARK    6  A    between atoms: N4_25  and  C39_26 
REMARK    7  A    between atoms: N4_25  and  C40_27 
ROOT
HETATM    1  C4    D T1294       9.508  -5.521  -4.798  1.00 32.29     0.052 C 
HETATM    2  C13   D T1294       8.543  -2.063  -3.650  1.00 33.66     0.002 A 
HETATM    3  C3    D T1294       8.196  -0.796  -2.853  1.00 26.27     0.033 C 
HETATM    4  C14   D T1294       9.090  -4.110  -4.567  1.00 36.57     0.064 A 
HETATM    5  C18   D T1294       8.402  -2.091  -5.075  1.00 31.41     0.077 A 
HETATM    6  C19   D T1294       8.932  -3.363  -3.320  1.00 39.79     0.069 A 
HETATM    7  N23   D T1294       8.768  -3.290  -5.541  1.00 32.77    -0.250 NA
ENDROOT
BRANCH   5   8
HETATM    8  C12   D T1294       7.843  -0.897  -5.923  1.00 29.19     0.024 C 
HETATM    9  C20   D T1294       8.478   0.312  -6.223  1.00 28.62     0.061 A 
HETATM   10  C17   D T1294       7.900   1.289  -7.050  1.00 28.15     0.025 A 
HETATM   11  C21   D T1294       9.759   0.860  -5.853  1.00 24.63     0.279 A 
HETATM   12  C7    D T1294       6.646   1.289  -7.725  1.00 25.53     0.031 A 
HETATM   13  C16   D T1294       8.831   2.399  -7.160  1.00 25.62     0.085 A 
HETATM   14  C15   D T1294       6.333   2.409  -8.514  1.00 28.19     0.140 A 
HETATM   15  C5    D T1294       7.248   3.561  -8.675  1.00 25.66     0.031 A 
HETATM   16  F29   D T1294       5.235   2.451  -9.115  1.00 36.26    -0.204 F 
HETATM   17  C6    D T1294       8.427   3.595  -8.014  1.00 26.69     0.021 A 
HETATM   18  N24   D T1294      10.006   2.121  -6.393  1.00 23.74    -0.208 NA
HETATM   19  O27   D T1294      10.516   0.327  -5.120  1.00 23.40    -0.265 OA
ENDBRANCH   5   8
BRANCH   6  20
HETATM   20  C22   D T1294       9.155  -3.991  -2.032  1.00 51.05     0.280 C 
HETATM   21  N25   D T1294      10.419  -3.936  -1.612  1.00 55.83    -0.209 NA
HETATM   22  O28   D T1294       8.300  -4.474  -1.352  1.00 56.66    -0.265 OA
BRANCH  21  23
HETATM   23  C37   D T1294      10.876  -4.448  -0.406  1.00 58.65     0.101 C 
BRANCH  23  24
HETATM   24  C38   D T1294      10.929  -3.228   0.499  1.00 62.48     0.153 C 
BRANCH  24  25
HETATM   25  N4    D T1294      12.247  -2.587   0.878  1.00 67.11    -0.327 N 
BRANCH  25  26
HETATM   26  C39   D T1294      12.235  -2.446   2.441  1.00 68.16     0.049 C 
HETATM   27  C42   D T1294      11.442  -3.424   3.440  1.00 67.52     0.051 C 
ENDBRANCH  25  26
BRANCH  25  28
HETATM   28  C40   D T1294      12.872  -1.456  -0.150  1.00 67.42     0.049 C 
HETATM   29  C41   D T1294      14.207  -1.465  -0.936  1.00 66.32     0.051 C 
ENDBRANCH  25  28
ENDBRANCH  24  25
ENDBRANCH  23  24
ENDBRANCH  21  23
ENDBRANCH   6  20
TORSDOF 7
ENDMDL
MODEL 5
REMARK VINA RESULT:    -7.280      4.043      8.718
REMARK INTER + INTRA:         -11.266
REMARK INTER:                 -10.207
REMARK INTRA:                  -1.059
REMARK UNBOUND:                -1.007
REMARK  7 active torsions:
REMARK  status: ('A' for Active; 'I' for Inactive)
REMARK    1  A    between atoms: C22_10  and  C19_16 
REMARK       I    between atoms: C22_10  and  N25_19 
REMARK    2  A    between atoms: C12_12  and  C18_15 
REMARK    3  A    between atoms: N25_19  and  C37_23 
REMARK    4  A    between atoms: C37_23  and  C38_24 
REMARK    5  A    between atoms: C38_24  and  N4_25 
REMARK    6  A    between atoms: N4_25  and  C39_26 
REMARK    7  A    between atoms: N4_25  and  C40_27 
ROOT
HETATM    1  C4    D T1294       9.875  -4.771  -5.898  1.00 32.29     0.052 C 
HETATM    2  C13   D T1294       8.418  -2.833  -3.011  1.00 33.66     0.002 A 
HETATM    3  C3    D T1294       7.649  -1.867  -2.098  1.00 26.27     0.033 C 
HETATM    4  C14   D T1294       9.443  -4.128  -4.626  1.00 36.57     0.064 A 
HETATM    5  C18   D T1294       9.398  -3.727  -2.470  1.00 31.41     0.077 A 
HETATM    6  C19   D T1294       8.482  -3.052  -4.390  1.00 39.79     0.069 A 
HETATM    7  N23   D T1294       9.924  -4.468  -3.452  1.00 32.77    -0.250 NA
ENDROOT
BRANCH   5   8
HETATM    8  C12   D T1294       9.810  -3.762  -0.958  1.00 29.19     0.024 C 
HETATM    9  C20   D T1294      10.781  -2.987  -0.317  1.00 28.62     0.061 A 
HETATM   10  C17   D T1294      11.022  -3.062   1.064  1.00 28.15     0.025 A 
HETATM   11  C21   D T1294      11.705  -1.988  -0.794  1.00 24.63     0.279 A 
HETATM   12  C7    D T1294      10.394  -3.864   2.060  1.00 25.53     0.031 A 
HETATM   13  C16   D T1294      12.077  -2.119   1.393  1.00 25.62     0.085 A 
HETATM   14  C15   D T1294      10.830  -3.713   3.387  1.00 28.19     0.140 A 
HETATM   15  C5    D T1294      11.889  -2.757   3.782  1.00 25.66     0.031 A 
HETATM   16  F29   D T1294      10.308  -4.408   4.289  1.00 36.26    -0.204 F 
HETATM   17  C6    D T1294      12.520  -2.012   2.848  1.00 26.69     0.021 A 
HETATM   18  N24   D T1294      12.508  -1.445   0.207  1.00 23.74    -0.208 NA
HETATM   19  O27   D T1294      11.818  -1.685  -1.929  1.00 23.40    -0.265 OA
ENDBRANCH   5   8
BRANCH   6  20
HETATM   20  C22   D T1294       7.797  -2.398  -5.488  1.00 51.05     0.280 C 
HETATM   21  N25   D T1294       8.231  -1.164  -5.741  1.00 55.83    -0.209 NA
HETATM   22  O28   D T1294       6.954  -2.907  -6.165  1.00 56.66    -0.265 OA
BRANCH  21  23
HETATM   23  C37   D T1294       7.746  -0.346  -6.753  1.00 58.65     0.101 C 
BRANCH  23  24
HETATM   24  C38   D T1294       7.784   1.042  -6.135  1.00 62.48     0.153 C 
BRANCH  24  25
HETATM   25  N4    D T1294       8.870   2.033  -6.493  1.00 67.11    -0.327 N 
BRANCH  25  26
HETATM   26  C39   D T1294       8.425   2.706  -7.840  1.00 68.16     0.049 C 
HETATM   27  C42   D T1294       8.431   4.291  -8.113  1.00 67.52     0.051 C 
ENDBRANCH  25  26
BRANCH  25  28
HETATM   28  C40   D T1294      10.429   1.626  -6.131  1.00 67.42     0.049 C 
HETATM   29  C41   D T1294      10.983   0.785  -4.954  1.00 66.32     0.051 C 
ENDBRANCH  25  28
ENDBRANCH  24  25
ENDBRANCH  23  24
ENDBRANCH  21  23
ENDBRANCH   6  20
TORSDOF 7
ENDMDL
MODEL 6
REMARK VINA RESULT:    -7.270      2.701      5.271
REMARK INTER + INTRA:         -11.252
REMARK INTER:                 -10.328
REMARK INTRA:                  -0.923
REMARK UNBOUND:                -1.007
REMARK  7 active torsions:
REMARK  status: ('A' for Active; 'I' for Inactive)
REMARK    1  A    between atoms: C22_10  and  C19_16 
REMARK       I    between atoms: C22_10  and  N25_19 
REMARK    2  A    between atoms: C12_12  and  C18_15 
REMARK    3  A    between atoms: N25_19  and  C37_23 
REMARK    4  A    between atoms: C37_23  and  C38_24 
REMARK    5  A    between atoms: C38_24  and  N4_25 
REMARK    6  A    between atoms: N4_25  and  C39_26 
REMARK    7  A    between atoms: N4_25  and  C40_27 
ROOT
HETATM    1  C4    D T1294       9.720  -6.096  -2.538  1.00 32.29     0.052 C 
HETATM    2  C13   D T1294       9.200  -2.407  -1.962  1.00 33.66     0.002 A 
HETATM    3  C3    D T1294       9.022  -0.997  -1.378  1.00 26.27     0.033 C 
HETATM    4  C14   D T1294       9.481  -4.626  -2.538  1.00 36.57     0.064 A 
HETATM    5  C18   D T1294       9.040  -2.643  -3.365  1.00 31.41     0.077 A 
HETATM    6  C19   D T1294       9.431  -3.677  -1.426  1.00 39.79     0.069 A 
HETATM    7  N23   D T1294       9.250  -3.937  -3.631  1.00 32.77    -0.250 NA
ENDROOT
BRANCH   5   8
HETATM    8  C12   D T1294       8.622  -1.539  -4.396  1.00 29.19     0.024 C 
HETATM    9  C20   D T1294       9.377  -0.448  -4.837  1.00 28.62     0.061 A 
HETATM   10  C17   D T1294       8.919   0.447  -5.816  1.00 28.15     0.025 A 
HETATM   11  C21   D T1294      10.693   0.032  -4.492  1.00 24.63     0.279 A 
HETATM   12  C7    D T1294       7.691   0.461  -6.539  1.00 25.53     0.031 A 
HETATM   13  C16   D T1294       9.953   1.442  -6.041  1.00 25.62     0.085 A 
HETATM   14  C15   D T1294       7.509   1.479  -7.491  1.00 28.19     0.140 A 
HETATM   15  C5    D T1294       8.533   2.509  -7.773  1.00 25.66     0.031 A 
HETATM   16  F29   D T1294       6.438   1.531  -8.139  1.00 36.26    -0.204 F 
HETATM   17  C6    D T1294       9.690   2.533  -7.073  1.00 26.69     0.021 A 
HETATM   18  N24   D T1294      11.073   1.174  -5.193  1.00 23.74    -0.208 NA
HETATM   19  O27   D T1294      11.374  -0.455  -3.659  1.00 23.40    -0.265 OA
ENDBRANCH   5   8
BRANCH   6  20
HETATM   20  C22   D T1294       9.591  -4.114  -0.053  1.00 51.05     0.280 C 
HETATM   21  N25   D T1294      10.515  -3.437   0.629  1.00 55.83    -0.209 NA
HETATM   22  O28   D T1294       8.935  -4.962   0.473  1.00 56.66    -0.265 OA
BRANCH  21  23
HETATM   23  C37   D T1294      10.836  -3.658   1.961  1.00 58.65     0.101 C 
BRANCH  23  24
HETATM   24  C38   D T1294      12.208  -3.022   2.106  1.00 62.48     0.153 C 
BRANCH  24  25
HETATM   25  N4    D T1294      12.377  -1.519   2.154  1.00 67.11    -0.327 N 
BRANCH  25  26
HETATM   26  C39   D T1294      13.414  -1.155   1.033  1.00 68.16     0.049 C 
HETATM   27  C42   D T1294      13.184  -1.404  -0.539  1.00 67.52     0.051 C 
ENDBRANCH  25  26
BRANCH  25  28
HETATM   28  C40   D T1294      12.317  -0.788   3.634  1.00 67.42     0.049 C 
HETATM   29  C41   D T1294      12.408  -1.412   5.049  1.00 66.32     0.051 C 
ENDBRANCH  25  28
ENDBRANCH  24  25
ENDBRANCH  23  24
ENDBRANCH  21  23
ENDBRANCH   6  20
TORSDOF 7
ENDMDL
MODEL 7
REMARK VINA RESULT:    -7.154      3.761      9.326
REMARK INTER + INTRA:         -11.088
REMARK INTER:                 -10.219
REMARK INTRA:                  -0.869
REMARK UNBOUND:                -1.007
REMARK  7 active torsions:
REMARK  status: ('A' for Active; 'I' for Inactive)
REMARK    1  A    between atoms: C22_10  and  C19_16 
REMARK       I    between atoms: C22_10  and  N25_19 
REMARK    2  A    between atoms: C12_12  and  C18_15 
REMARK    3  A    between atoms: N25_19  and  C37_23 
REMARK    4  A    between atoms: C37_23  and  C38_24 
REMARK    5  A    between atoms: C38_24  and  N4_25 
REMARK    6  A    between atoms: N4_25  and  C39_26 
REMARK    7  A    between atoms: N4_25  and  C40_27 
ROOT
HETATM    1  C4    D T1294       9.899  -4.785  -5.873  1.00 32.29     0.052 C 
HETATM    2  C13   D T1294       8.289  -2.844  -3.071  1.00 33.66     0.002 A 
HETATM    3  C3    D T1294       7.470  -1.878  -2.202  1.00 26.27     0.033 C 
HETATM    4  C14   D T1294       9.400  -4.140  -4.627  1.00 36.57     0.064 A 
HETATM    5  C18   D T1294       9.244  -3.731  -2.478  1.00 31.41     0.077 A 
HETATM    6  C19   D T1294       8.423  -3.067  -4.444  1.00 39.79     0.069 A 
HETATM    7  N23   D T1294       9.822  -4.473  -3.429  1.00 32.77    -0.250 NA
ENDROOT
BRANCH   5   8
HETATM    8  C12   D T1294       9.579  -3.759  -0.947  1.00 29.19     0.024 C 
HETATM    9  C20   D T1294       9.391  -4.813  -0.048  1.00 28.62     0.061 A 
HETATM   10  C17   D T1294       9.789  -4.744   1.297  1.00 28.15     0.025 A 
HETATM   11  C21   D T1294       8.827  -6.131  -0.193  1.00 24.63     0.279 A 
HETATM   12  C7    D T1294      10.427  -3.687   2.009  1.00 25.53     0.031 A 
HETATM   13  C16   D T1294       9.459  -6.007   1.933  1.00 25.62     0.085 A 
HETATM   14  C15   D T1294      10.733  -3.907   3.363  1.00 28.19     0.140 A 
HETATM   15  C5    D T1294      10.434  -5.179   4.058  1.00 25.66     0.031 A 
HETATM   16  F29   D T1294      11.284  -2.998   4.024  1.00 36.26    -0.204 F 
HETATM   17  C6    D T1294       9.799  -6.180   3.409  1.00 26.69     0.021 A 
HETATM   18  N24   D T1294       8.844  -6.880   0.981  1.00 23.74    -0.208 NA
HETATM   19  O27   D T1294       8.344  -6.534  -1.193  1.00 23.40    -0.265 OA
ENDBRANCH   5   8
BRANCH   6  20
HETATM   20  C22   D T1294       7.791  -2.421  -5.578  1.00 51.05     0.280 C 
HETATM   21  N25   D T1294       8.228  -1.183  -5.810  1.00 55.83    -0.209 NA
HETATM   22  O28   D T1294       6.990  -2.937  -6.297  1.00 56.66    -0.265 OA
BRANCH  21  23
HETATM   23  C37   D T1294       7.790  -0.370  -6.847  1.00 58.65     0.101 C 
BRANCH  23  24
HETATM   24  C38   D T1294       7.751   1.013  -6.220  1.00 62.48     0.153 C 
BRANCH  24  25
HETATM   25  N4    D T1294       8.813   2.046  -6.528  1.00 67.11    -0.327 N 
BRANCH  25  26
HETATM   26  C39   D T1294       8.377   2.742  -7.866  1.00 68.16     0.049 C 
HETATM   27  C42   D T1294       8.336   4.333  -8.096  1.00 67.52     0.051 C 
ENDBRANCH  25  26
BRANCH  25  28
HETATM   28  C40   D T1294      10.376   1.677  -6.143  1.00 67.42     0.049 C 
HETATM   29  C41   D T1294      10.931   0.810  -4.985  1.00 66.32     0.051 C 
ENDBRANCH  25  28
ENDBRANCH  24  25
ENDBRANCH  23  24
ENDBRANCH  21  23
ENDBRANCH   6  20
TORSDOF 7
ENDMDL
MODEL 8
REMARK VINA RESULT:    -6.997      2.461      3.672
REMARK INTER + INTRA:         -10.867
REMARK INTER:                  -9.852
REMARK INTRA:                  -1.015
REMARK UNBOUND:                -1.007
REMARK  7 active torsions:
REMARK  status: ('A' for Active; 'I' for Inactive)
REMARK    1  A    between atoms: C22_10  and  C19_16 
REMARK       I    between atoms: C22_10  and  N25_19 
REMARK    2  A    between atoms: C12_12  and  C18_15 
REMARK    3  A    between atoms: N25_19  and  C37_23 
REMARK    4  A    between atoms: C37_23  and  C38_24 
REMARK    5  A    between atoms: C38_24  and  N4_25 
REMARK    6  A    between atoms: N4_25  and  C39_26 
REMARK    7  A    between atoms: N4_25  and  C40_27 
ROOT
HETATM    1  C4    D T1294       9.825  -5.784  -2.738  1.00 32.29     0.052 C 
HETATM    2  C13   D T1294       9.069  -2.131  -2.191  1.00 33.66     0.002 A 
HETATM    3  C3    D T1294       8.780  -0.735  -1.618  1.00 26.27     0.033 C 
HETATM    4  C14   D T1294       9.505  -4.329  -2.751  1.00 36.57     0.064 A 
HETATM    5  C18   D T1294       9.001  -2.372  -3.601  1.00 31.41     0.077 A 
HETATM    6  C19   D T1294       9.341  -3.388  -1.644  1.00 39.79     0.069 A 
HETATM    7  N23   D T1294       9.297  -3.651  -3.856  1.00 32.77    -0.250 NA
ENDROOT
BRANCH   5   8
HETATM    8  C12   D T1294       8.579  -1.289  -4.654  1.00 29.19     0.024 C 
HETATM    9  C20   D T1294       9.300  -0.161  -5.058  1.00 28.62     0.061 A 
HETATM   10  C17   D T1294       8.846   0.711  -6.061  1.00 28.15     0.025 A 
HETATM   11  C21   D T1294      10.570   0.385  -4.649  1.00 24.63     0.279 A 
HETATM   12  C7    D T1294       7.657   0.664  -6.844  1.00 25.53     0.031 A 
HETATM   13  C16   D T1294       9.838   1.757  -6.235  1.00 25.62     0.085 A 
HETATM   14  C15   D T1294       7.471   1.672  -7.805  1.00 28.19     0.140 A 
HETATM   15  C5    D T1294       8.455   2.753  -8.037  1.00 25.66     0.031 A 
HETATM   16  F29   D T1294       6.433   1.670  -8.506  1.00 36.26    -0.204 F 
HETATM   17  C6    D T1294       9.572   2.835  -7.281  1.00 26.69     0.021 A 
HETATM   18  N24   D T1294      10.927   1.545  -5.332  1.00 23.74    -0.208 NA
HETATM   19  O27   D T1294      11.232  -0.068  -3.782  1.00 23.40    -0.265 OA
ENDBRANCH   5   8
BRANCH   6  20
HETATM   20  C22   D T1294       9.448  -3.820  -0.264  1.00 51.05     0.280 C 
HETATM   21  N25   D T1294      10.546  -3.390   0.356  1.00 55.83    -0.209 NA
HETATM   22  O28   D T1294       8.622  -4.458   0.316  1.00 56.66    -0.265 OA
BRANCH  21  23
HETATM   23  C37   D T1294      10.863  -3.655   1.682  1.00 58.65     0.101 C 
BRANCH  23  24
HETATM   24  C38   D T1294      11.692  -4.925   1.600  1.00 62.48     0.153 C 
BRANCH  24  25
HETATM   25  N4    D T1294      11.119  -6.266   2.003  1.00 67.11    -0.327 N 
BRANCH  25  26
HETATM   26  C39   D T1294      11.388  -7.240   0.801  1.00 68.16     0.049 C 
HETATM   27  C42   D T1294      12.372  -6.920  -0.430  1.00 67.52     0.051 C 
ENDBRANCH  25  26
BRANCH  25  28
HETATM   28  C40   D T1294       9.736  -6.269   2.905  1.00 67.42     0.049 C 
HETATM   29  C41   D T1294       9.351  -7.148   4.122  1.00 66.32     0.051 C 
ENDBRANCH  25  28
ENDBRANCH  24  25
ENDBRANCH  23  24
ENDBRANCH  21  23
ENDBRANCH   6  20
TORSDOF 7
ENDMDL
MODEL 9
REMARK VINA RESULT:    -6.743      3.362      4.298
REMARK INTER + INTRA:         -10.509
REMARK INTER:                  -9.360
REMARK INTRA:                  -1.149
REMARK UNBOUND:                -1.007
REMARK  7 active torsions:
REMARK  status: ('A' for Active; 'I' for Inactive)
REMARK    1  A    between atoms: C22_10  and  C19_16 
REMARK       I    between atoms: C22_10  and  N25_19 
REMARK    2  A    between atoms: C12_12  and  C18_15 
REMARK    3  A    between atoms: N25_19  and  C37_23 
REMARK    4  A    between atoms: C37_23  and  C38_24 
REMARK    5  A    between atoms: C38_24  and  N4_25 
REMARK    6  A    between atoms: N4_25  and  C39_26 
REMARK    7  A    between atoms: N4_25  and  C40_27 
ROOT
HETATM    1  C4    D T1294       8.442  -3.582   0.283  1.00 32.29     0.052 C 
HETATM    2  C13   D T1294      10.936  -1.713  -1.839  1.00 33.66     0.002 A 
HETATM    3  C3    D T1294      12.185  -1.060  -2.449  1.00 26.27     0.033 C 
HETATM    4  C14   D T1294       9.246  -2.780  -0.682  1.00 36.57     0.064 A 
HETATM    5  C18   D T1294       9.642  -1.494  -2.413  1.00 31.41     0.077 A 
HETATM    6  C19   D T1294      10.679  -2.491  -0.707  1.00 39.79     0.069 A 
HETATM    7  N23   D T1294       8.719  -2.168  -1.717  1.00 32.77    -0.250 NA
ENDROOT
BRANCH   5   8
HETATM    8  C12   D T1294       9.377  -0.553  -3.638  1.00 29.19     0.024 C 
HETATM    9  C20   D T1294       8.644  -0.838  -4.795  1.00 28.62     0.061 A 
HETATM   10  C17   D T1294       8.420   0.112  -5.804  1.00 28.15     0.025 A 
HETATM   11  C21   D T1294       7.961  -2.022  -5.251  1.00 24.63     0.279 A 
HETATM   12  C7    D T1294       8.838   1.471  -5.891  1.00 25.53     0.031 A 
HETATM   13  C16   D T1294       7.617  -0.511  -6.842  1.00 25.62     0.085 A 
HETATM   14  C15   D T1294       8.444   2.202  -7.024  1.00 28.19     0.140 A 
HETATM   15  C5    D T1294       7.613   1.624  -8.105  1.00 25.66     0.031 A 
HETATM   16  F29   D T1294       8.800   3.397  -7.141  1.00 36.26    -0.204 F 
HETATM   17  C6    D T1294       7.236   0.327  -8.058  1.00 26.69     0.021 A 
HETATM   18  N24   D T1294       7.335  -1.867  -6.486  1.00 23.74    -0.208 NA
HETATM   19  O27   D T1294       7.967  -3.050  -4.670  1.00 23.40    -0.265 OA
ENDBRANCH   5   8
BRANCH   6  20
HETATM   20  C22   D T1294      11.564  -2.973   0.336  1.00 51.05     0.280 C 
HETATM   21  N25   D T1294      12.286  -4.037  -0.014  1.00 55.83    -0.209 NA
HETATM   22  O28   D T1294      11.703  -2.457   1.404  1.00 56.66    -0.265 OA
BRANCH  21  23
HETATM   23  C37   D T1294      13.215  -4.667   0.803  1.00 58.65     0.101 C 
BRANCH  23  24
HETATM   24  C38   D T1294      12.736  -6.108   0.839  1.00 62.48     0.153 C 
BRANCH  24  25
HETATM   25  N4    D T1294      11.629  -6.546   1.773  1.00 67.11    -0.327 N 
BRANCH  25  26
HETATM   26  C39   D T1294      10.542  -7.236   0.875  1.00 68.16     0.049 C 
HETATM   27  C42   D T1294       9.078  -7.668   1.383  1.00 67.52     0.051 C 
ENDBRANCH  25  26
BRANCH  25  28
HETATM   28  C40   D T1294      11.284  -5.573   3.062  1.00 67.42     0.049 C 
HETATM   29  C41   D T1294       9.959  -4.862   3.437  1.00 66.32     0.051 C 
ENDBRANCH  25  28
ENDBRANCH  24  25
ENDBRANCH  23  24
ENDBRANCH  21  23
ENDBRANCH   6  20
TORSDOF 7
ENDMDL
