MODEL 1
REMARK VINA RESULT:    -7.700      0.000      0.000
REMARK INTER + INTRA:          -8.812
REMARK INTER:                  -8.600
REMARK INTRA:                  -0.212
REMARK UNBOUND:                -0.212
REMARK  2 active torsions:
REMARK  status: ('A' for Active; 'I' for Inactive)
REMARK    1  A    between atoms: C5_4  and  O7_13 
REMARK    2  A    between atoms: C8_10  and  O7_13 
ROOT
HETATM    1  O7    D T 802       5.733   0.189  -7.616  1.00 33.38    -0.304 OA
ENDROOT
BRANCH   1   2
HETATM    2  C5    D T 802       5.058   1.127  -6.908  1.00 33.90     0.125 A 
HETATM    3  C6    D T 802       3.968   0.678  -6.010  1.00 34.14     0.154 A 
HETATM    4  C1    D T 802       3.275   1.636  -5.290  1.00 33.42     0.041 A 
HETATM    5  O17   D T 802       3.655  -0.640  -5.909  1.00 31.93    -0.188 OA
HETATM    6  C2    D T 802       3.613   2.979  -5.458  1.00 33.75     0.060 A 
HETATM    7  C3    D T 802       4.626   3.402  -6.319  1.00 34.09     0.014 A 
HETATM    8 CL14   D T 802       2.699   4.170  -4.499  1.00 31.80    -0.082 Cl
HETATM    9  C4    D T 802       5.363   2.478  -7.053  1.00 33.84     0.028 A 
ENDBRANCH   1   2
BRANCH   1  10
HETATM   10  C8    D T 802       6.215   0.541  -8.846  1.00 32.79     0.111 A 
HETATM   11  C9    D T 802       5.262   0.483  -9.964  1.00 33.58     0.081 A 
HETATM   12  C10   D T 802       5.673   0.816 -11.237  1.00 33.67     0.025 A 
HETATM   13 CL16   D T 802       3.596  -0.052  -9.638  1.00 34.24    -0.080 Cl
HETATM   14  C11   D T 802       7.006   1.194 -11.377  1.00 34.91     0.059 A 
HETATM   15  C12   D T 802       7.934   1.268 -10.338  1.00 32.31     0.013 A 
HETATM   16 CL15   D T 802       7.514   1.615 -13.012  1.00 34.34    -0.082 Cl
HETATM   17  C13   D T 802       7.538   0.937  -9.053  1.00 32.72     0.026 A 
ENDBRANCH   1  10
TORSDOF 2
ENDMDL
MODEL 2
REMARK VINA RESULT:    -7.653      1.160      5.697
REMARK INTER + INTRA:          -8.760
REMARK INTER:                  -8.524
REMARK INTRA:                  -0.236
REMARK UNBOUND:                -0.212
REMARK  2 active torsions:
REMARK  status: ('A' for Active; 'I' for Inactive)
REMARK    1  A    between atoms: C5_4  and  O7_13 
REMARK    2  A    between atoms: C8_10  and  O7_13 
ROOT
HETATM    1  O7    D T 802       5.791   0.271  -7.600  1.00 33.38    -0.304 OA
ENDROOT
BRANCH   1   2
HETATM    2  C5    D T 802       6.195   0.570  -8.859  1.00 33.90     0.125 A 
HETATM    3  C6    D T 802       5.186   0.539  -9.944  1.00 34.14     0.154 A 
HETATM    4  C1    D T 802       5.598   0.839 -11.231  1.00 33.42     0.041 A 
HETATM    5  O17   D T 802       3.894   0.214  -9.677  1.00 31.93    -0.188 OA
HETATM    6  C2    D T 802       6.943   1.131 -11.455  1.00 33.75     0.060 A 
HETATM    7  C3    D T 802       7.896   1.140 -10.436  1.00 34.09     0.014 A 
HETATM    8 CL14   D T 802       7.419   1.522 -13.128  1.00 31.80    -0.082 Cl
HETATM    9  C4    D T 802       7.531   0.861  -9.123  1.00 33.84     0.028 A 
ENDBRANCH   1   2
BRANCH   1  10
HETATM   10  C8    D T 802       5.117   1.233  -6.899  1.00 32.79     0.111 A 
HETATM   11  C9    D T 802       4.036   0.765  -6.019  1.00 33.58     0.081 A 
HETATM   12  C10   D T 802       3.305   1.674  -5.284  1.00 33.67     0.025 A 
HETATM   13 CL16   D T 802       3.683  -0.978  -5.954  1.00 34.24    -0.080 Cl
HETATM   14  C11   D T 802       3.653   3.014  -5.435  1.00 34.91     0.059 A 
HETATM   15  C12   D T 802       4.677   3.491  -6.254  1.00 32.31     0.013 A 
HETATM   16 CL15   D T 802       2.706   4.161  -4.490  1.00 34.34    -0.082 Cl
HETATM   17  C13   D T 802       5.422   2.592  -6.999  1.00 32.72     0.026 A 
ENDBRANCH   1  10
TORSDOF 2
ENDMDL
MODEL 3
REMARK VINA RESULT:    -7.581      3.157      3.520
REMARK INTER + INTRA:          -8.679
REMARK INTER:                  -8.242
REMARK INTRA:                  -0.437
REMARK UNBOUND:                -0.212
REMARK  2 active torsions:
REMARK  status: ('A' for Active; 'I' for Inactive)
REMARK    1  A    between atoms: C5_4  and  O7_13 
REMARK    2  A    between atoms: C8_10  and  O7_13 
ROOT
HETATM    1  O7    D T 802       6.233   1.689  -7.752  1.00 33.38    -0.304 OA
ENDROOT
BRANCH   1   2
HETATM    2  C5    D T 802       7.237   1.636  -6.842  1.00 33.90     0.125 A 
HETATM    3  C6    D T 802       7.205   0.558  -5.826  1.00 34.14     0.154 A 
HETATM    4  C1    D T 802       8.226   0.506  -4.893  1.00 33.42     0.041 A 
HETATM    5  O17   D T 802       6.190  -0.346  -5.810  1.00 31.93    -0.188 OA
HETATM    6  C2    D T 802       9.224   1.479  -4.933  1.00 33.75     0.060 A 
HETATM    7  C3    D T 802       9.242   2.506  -5.878  1.00 34.09     0.014 A 
HETATM    8 CL14   D T 802      10.521   1.359  -3.718  1.00 31.80    -0.082 Cl
HETATM    9  C4    D T 802       8.247   2.594  -6.847  1.00 33.84     0.028 A 
ENDBRANCH   1   2
BRANCH   1  10
HETATM   10  C8    D T 802       6.555   1.514  -9.070  1.00 32.79     0.111 A 
HETATM   11  C9    D T 802       5.940   2.451 -10.022  1.00 33.58     0.081 A 
HETATM   12  C10   D T 802       6.209   2.336 -11.370  1.00 33.67     0.025 A 
HETATM   13 CL16   D T 802       4.833   3.697  -9.401  1.00 34.24    -0.080 Cl
HETATM   14  C11   D T 802       7.070   1.308 -11.743  1.00 34.91     0.059 A 
HETATM   15  C12   D T 802       7.676   0.408 -10.866  1.00 32.31     0.013 A 
HETATM   16 CL15   D T 802       7.400   1.175 -13.470  1.00 34.34    -0.082 Cl
HETATM   17  C13   D T 802       7.417   0.508  -9.509  1.00 32.72     0.026 A 
ENDBRANCH   1  10
TORSDOF 2
ENDMDL
MODEL 4
REMARK VINA RESULT:    -7.314      2.004      6.209
REMARK INTER + INTRA:          -8.381
REMARK INTER:                  -8.232
REMARK INTRA:                  -0.148
REMARK UNBOUND:                -0.212
REMARK  2 active torsions:
REMARK  status: ('A' for Active; 'I' for Inactive)
REMARK    1  A    between atoms: C5_4  and  O7_13 
REMARK    2  A    between atoms: C8_10  and  O7_13 
ROOT
HETATM    1  O7    D T 802       4.647   2.739  -7.130  1.00 33.38    -0.304 OA
ENDROOT
BRANCH   1   2
HETATM    2  C5    D T 802       5.396   2.200  -8.124  1.00 33.90     0.125 A 
HETATM    3  C6    D T 802       6.859   2.429  -8.101  1.00 34.14     0.154 A 
HETATM    4  C1    D T 802       7.624   1.884  -9.118  1.00 33.42     0.041 A 
HETATM    5  O17   D T 802       7.427   3.167  -7.111  1.00 31.93    -0.188 OA
HETATM    6  C2    D T 802       6.985   1.166 -10.129  1.00 33.75     0.060 A 
HETATM    7  C3    D T 802       5.605   0.968 -10.160  1.00 34.09     0.014 A 
HETATM    8 CL14   D T 802       8.018   0.475 -11.407  1.00 31.80    -0.082 Cl
HETATM    9  C4    D T 802       4.793   1.482  -9.153  1.00 33.84     0.028 A 
ENDBRANCH   1   2
BRANCH   1  10
HETATM   10  C8    D T 802       4.265   1.921  -6.102  1.00 32.79     0.111 A 
HETATM   11  C9    D T 802       3.498   2.551  -5.017  1.00 33.58     0.081 A 
HETATM   12  C10   D T 802       3.082   1.795  -3.941  1.00 33.67     0.025 A 
HETATM   13 CL16   D T 802       3.154   4.294  -5.114  1.00 34.24    -0.080 Cl
HETATM   14  C11   D T 802       3.431   0.447  -3.960  1.00 34.91     0.059 A 
HETATM   15  C12   D T 802       4.150  -0.183  -4.976  1.00 32.31     0.013 A 
HETATM   16 CL15   D T 802       2.893  -0.502  -2.575  1.00 34.34    -0.082 Cl
HETATM   17  C13   D T 802       4.576   0.561  -6.064  1.00 32.72     0.026 A 
ENDBRANCH   1  10
TORSDOF 2
ENDMDL
MODEL 5
REMARK VINA RESULT:    -7.221      2.585      6.145
REMARK INTER + INTRA:          -8.277
REMARK INTER:                  -7.795
REMARK INTRA:                  -0.483
REMARK UNBOUND:                -0.212
REMARK  2 active torsions:
REMARK  status: ('A' for Active; 'I' for Inactive)
REMARK    1  A    between atoms: C5_4  and  O7_13 
REMARK    2  A    between atoms: C8_10  and  O7_13 
ROOT
HETATM    1  O7    D T 802       6.110   3.192  -7.113  1.00 33.38    -0.304 OA
ENDROOT
BRANCH   1   2
HETATM    2  C5    D T 802       6.395   2.715  -8.350  1.00 33.90     0.125 A 
HETATM    3  C6    D T 802       5.542   3.149  -9.481  1.00 34.14     0.154 A 
HETATM    4  C1    D T 802       5.828   2.659 -10.744  1.00 33.42     0.041 A 
HETATM    5  O17   D T 802       4.501   3.998  -9.275  1.00 31.93    -0.188 OA
HETATM    6  C2    D T 802       6.886   1.762 -10.893  1.00 33.75     0.060 A 
HETATM    7  C3    D T 802       7.675   1.338  -9.824  1.00 34.09     0.014 A 
HETATM    8 CL14   D T 802       7.219   1.171 -12.541  1.00 31.80    -0.082 Cl
HETATM    9  C4    D T 802       7.439   1.814  -8.537  1.00 33.84     0.028 A 
ENDBRANCH   1   2
BRANCH   1  10
HETATM   10  C8    D T 802       5.431   2.374  -6.254  1.00 32.79     0.111 A 
HETATM   11  C9    D T 802       6.200   1.828  -5.125  1.00 33.58     0.081 A 
HETATM   12  C10   D T 802       5.588   0.988  -4.218  1.00 33.67     0.025 A 
HETATM   13 CL16   D T 802       7.923   2.247  -4.984  1.00 34.24    -0.080 Cl
HETATM   14  C11   D T 802       4.242   0.709  -4.444  1.00 34.91     0.059 A 
HETATM   15  C12   D T 802       3.482   1.216  -5.498  1.00 32.31     0.013 A 
HETATM   16 CL15   D T 802       3.478  -0.367  -3.275  1.00 34.34    -0.082 Cl
HETATM   17  C13   D T 802       4.080   2.060  -6.419  1.00 32.72     0.026 A 
ENDBRANCH   1  10
TORSDOF 2
ENDMDL
MODEL 6
REMARK VINA RESULT:    -7.137      1.821      2.223
REMARK INTER + INTRA:          -8.183
REMARK INTER:                  -7.740
REMARK INTRA:                  -0.442
REMARK UNBOUND:                -0.212
REMARK  2 active torsions:
REMARK  status: ('A' for Active; 'I' for Inactive)
REMARK    1  A    between atoms: C5_4  and  O7_13 
REMARK    2  A    between atoms: C8_10  and  O7_13 
ROOT
HETATM    1  O7    D T 802       6.274   0.852  -6.258  1.00 33.38    -0.304 OA
ENDROOT
BRANCH   1   2
HETATM    2  C5    D T 802       5.355   1.700  -5.733  1.00 33.90     0.125 A 
HETATM    3  C6    D T 802       4.146   1.119  -5.103  1.00 34.14     0.154 A 
HETATM    4  C1    D T 802       3.205   1.984  -4.572  1.00 33.42     0.041 A 
HETATM    5  O17   D T 802       3.968  -0.227  -5.061  1.00 31.93    -0.188 OA
HETATM    6  C2    D T 802       3.420   3.358  -4.673  1.00 33.75     0.060 A 
HETATM    7  C3    D T 802       4.549   3.904  -5.285  1.00 34.09     0.014 A 
HETATM    8 CL14   D T 802       2.184   4.426  -3.962  1.00 31.80    -0.082 Cl
HETATM    9  C4    D T 802       5.533   3.078  -5.821  1.00 33.84     0.028 A 
ENDBRANCH   1   2
BRANCH   1  10
HETATM   10  C8    D T 802       6.433   0.843  -7.616  1.00 32.79     0.111 A 
HETATM   11  C9    D T 802       7.619   1.537  -8.140  1.00 33.58     0.081 A 
HETATM   12  C10   D T 802       7.846   1.580  -9.500  1.00 33.67     0.025 A 
HETATM   13 CL16   D T 802       8.717   2.336  -6.991  1.00 34.24    -0.080 Cl
HETATM   14  C11   D T 802       6.905   0.942 -10.304  1.00 34.91     0.059 A 
HETATM   15  C12   D T 802       5.775   0.268  -9.840  1.00 32.31     0.013 A 
HETATM   16 CL15   D T 802       7.212   1.008 -12.039  1.00 34.34    -0.082 Cl
HETATM   17  C13   D T 802       5.531   0.216  -8.478  1.00 32.72     0.026 A 
ENDBRANCH   1  10
TORSDOF 2
ENDMDL
MODEL 7
REMARK VINA RESULT:    -7.084      9.880     11.633
REMARK INTER + INTRA:          -8.124
REMARK INTER:                  -7.605
REMARK INTRA:                  -0.519
REMARK UNBOUND:                -0.212
REMARK  2 active torsions:
REMARK  status: ('A' for Active; 'I' for Inactive)
REMARK    1  A    between atoms: C5_4  and  O7_13 
REMARK    2  A    between atoms: C8_10  and  O7_13 
ROOT
HETATM    1  O7    D T 802       6.291   7.834   2.086  1.00 33.38    -0.304 OA
ENDROOT
BRANCH   1   2
HETATM    2  C5    D T 802       6.538   6.596   2.580  1.00 33.90     0.125 A 
HETATM    3  C6    D T 802       5.530   5.986   3.478  1.00 34.14     0.154 A 
HETATM    4  C1    D T 802       5.784   4.724   3.988  1.00 33.42     0.041 A 
HETATM    5  O17   D T 802       4.393   6.658   3.798  1.00 31.93    -0.188 OA
HETATM    6  C2    D T 802       6.984   4.094   3.656  1.00 33.75     0.060 A 
HETATM    7  C3    D T 802       7.941   4.678   2.826  1.00 34.09     0.014 A 
HETATM    8 CL14   D T 802       7.255   2.466   4.328  1.00 31.80    -0.082 Cl
HETATM    9  C4    D T 802       7.727   5.938   2.276  1.00 33.84     0.028 A 
ENDBRANCH   1   2
BRANCH   1  10
HETATM   10  C8    D T 802       6.007   7.945   0.753  1.00 32.79     0.111 A 
HETATM   11  C9    D T 802       6.831   8.891  -0.014  1.00 33.58     0.081 A 
HETATM   12  C10   D T 802       6.602   9.066  -1.363  1.00 33.67     0.025 A 
HETATM   13 CL16   D T 802       8.089   9.814   0.840  1.00 34.24    -0.080 Cl
HETATM   14  C11   D T 802       5.574   8.310  -1.918  1.00 34.91     0.059 A 
HETATM   15  C12   D T 802       4.779   7.398  -1.222  1.00 32.31     0.013 A 
HETATM   16 CL15   D T 802       5.295   8.548  -3.643  1.00 34.34    -0.082 Cl
HETATM   17  C13   D T 802       4.995   7.210   0.133  1.00 32.72     0.026 A 
ENDBRANCH   1  10
TORSDOF 2
ENDMDL
MODEL 8
REMARK VINA RESULT:    -6.944      2.697      3.360
REMARK INTER + INTRA:          -7.967
REMARK INTER:                  -7.413
REMARK INTRA:                  -0.554
REMARK UNBOUND:                -0.212
REMARK  2 active torsions:
REMARK  status: ('A' for Active; 'I' for Inactive)
REMARK    1  A    between atoms: C5_4  and  O7_13 
REMARK    2  A    between atoms: C8_10  and  O7_13 
ROOT
HETATM    1  O7    D T 802       3.714   2.255  -6.168  1.00 33.38    -0.304 OA
ENDROOT
BRANCH   1   2
HETATM    2  C5    D T 802       4.278   2.704  -5.020  1.00 33.90     0.125 A 
HETATM    3  C6    D T 802       4.123   4.138  -4.678  1.00 34.14     0.154 A 
HETATM    4  C1    D T 802       4.703   4.600  -3.510  1.00 33.42     0.041 A 
HETATM    5  O17   D T 802       3.437   4.973  -5.501  1.00 31.93    -0.188 OA
HETATM    6  C2    D T 802       5.427   3.707  -2.720  1.00 33.75     0.060 A 
HETATM    7  C3    D T 802       5.589   2.362  -3.053  1.00 34.09     0.014 A 
HETATM    8 CL14   D T 802       6.142   4.349  -1.220  1.00 31.80    -0.082 Cl
HETATM    9  C4    D T 802       5.013   1.844  -4.209  1.00 33.84     0.028 A 
ENDBRANCH   1   2
BRANCH   1  10
HETATM   10  C8    D T 802       4.548   1.841  -7.171  1.00 32.79     0.111 A 
HETATM   11  C9    D T 802       4.426   0.435  -7.584  1.00 33.58     0.081 A 
HETATM   12  C10   D T 802       5.236  -0.060  -8.584  1.00 33.67     0.025 A 
HETATM   13 CL16   D T 802       3.245  -0.601  -6.749  1.00 34.24    -0.080 Cl
HETATM   14  C11   D T 802       6.141   0.836  -9.147  1.00 34.91     0.059 A 
HETATM   15  C12   D T 802       6.277   2.176  -8.785  1.00 32.31     0.013 A 
HETATM   16 CL15   D T 802       7.169   0.184 -10.422  1.00 34.34    -0.082 Cl
HETATM   17  C13   D T 802       5.471   2.691  -7.782  1.00 32.72     0.026 A 
ENDBRANCH   1  10
TORSDOF 2
ENDMDL
MODEL 9
REMARK VINA RESULT:    -6.766      1.951      2.546
REMARK INTER + INTRA:          -7.768
REMARK INTER:                  -7.306
REMARK INTRA:                  -0.462
REMARK UNBOUND:                -0.212
REMARK  2 active torsions:
REMARK  status: ('A' for Active; 'I' for Inactive)
REMARK    1  A    between atoms: C5_4  and  O7_13 
REMARK    2  A    between atoms: C8_10  and  O7_13 
ROOT
HETATM    1  O7    D T 802       4.855   0.816  -5.781  1.00 33.38    -0.304 OA
ENDROOT
BRANCH   1   2
HETATM    2  C5    D T 802       4.501   1.944  -5.119  1.00 33.90     0.125 A 
HETATM    3  C6    D T 802       5.509   2.589  -4.245  1.00 34.14     0.154 A 
HETATM    4  C1    D T 802       5.147   3.738  -3.564  1.00 33.42     0.041 A 
HETATM    5  O17   D T 802       6.750   2.053  -4.111  1.00 31.93    -0.188 OA
HETATM    6  C2    D T 802       3.849   4.225  -3.709  1.00 33.75     0.060 A 
HETATM    7  C3    D T 802       2.894   3.606  -4.517  1.00 34.09     0.014 A 
HETATM    8 CL14   D T 802       3.439   5.715  -2.821  1.00 31.80    -0.082 Cl
HETATM    9  C4    D T 802       3.212   2.457  -5.235  1.00 33.84     0.028 A 
ENDBRANCH   1   2
BRANCH   1  10
HETATM   10  C8    D T 802       5.175   0.926  -7.107  1.00 32.79     0.111 A 
HETATM   11  C9    D T 802       4.172   0.439  -8.065  1.00 33.58     0.081 A 
HETATM   12  C10   D T 802       4.423   0.508  -9.419  1.00 33.67     0.025 A 
HETATM   13 CL16   D T 802       2.661  -0.261  -7.437  1.00 34.24    -0.080 Cl
HETATM   14  C11   D T 802       5.649   1.052  -9.793  1.00 34.91     0.059 A 
HETATM   15  C12   D T 802       6.619   1.530  -8.911  1.00 32.31     0.013 A 
HETATM   16 CL15   D T 802       5.953   1.130 -11.527  1.00 34.34    -0.082 Cl
HETATM   17  C13   D T 802       6.384   1.467  -7.548  1.00 32.72     0.026 A 
ENDBRANCH   1  10
TORSDOF 2
ENDMDL
