MODEL 1
REMARK VINA RESULT:    -6.668      0.000      0.000
REMARK INTER + INTRA:         -11.312
REMARK INTER:                 -10.566
REMARK INTRA:                  -0.747
REMARK UNBOUND:                -0.747
REMARK  20 active torsions:
REMARK  status: ('A' for Active; 'I' for Inactive)
REMARK    1  A    between atoms: C1_1  and  O1_20 
REMARK    2  A    between atoms: C4_4  and  C9_9 
REMARK    3  A    between atoms: C7_7  and  C8_8 
REMARK    4  A    between atoms: C7_7  and  O1_20 
REMARK    5  A    between atoms: C8_8  and  C10_10 
REMARK    6  A    between atoms: C10_10  and  C8'_18 
REMARK    7  A    between atoms: C1'_11  and  O1'_21 
REMARK    8  A    between atoms: C4'_14  and  C9'_19 
REMARK    9  A    between atoms: C7'_17  and  C8'_18 
REMARK   10  A    between atoms: C7'_17  and  O1'_21 
REMARK   11  A    between atoms: C1_26  and  O1_45 
REMARK   12  A    between atoms: C4_29  and  C9_34 
REMARK   13  A    between atoms: C7_32  and  C8_33 
REMARK   14  A    between atoms: C7_32  and  O1_45 
REMARK   15  A    between atoms: C8_33  and  C10_35 
REMARK   16  A    between atoms: C10_35  and  C8'_43 
REMARK   17  A    between atoms: C1'_36  and  O1'_46 
REMARK   18  A    between atoms: C4'_39  and  C9'_44 
REMARK   19  A    between atoms: C7'_42  and  C8'_43 
REMARK   20  A    between atoms: C7'_42  and  O1'_46 
ROOT
HETATM    1  C10   D T 101      -5.952   7.184  -7.818  0.50 43.26     0.005 C 
ENDROOT
BRANCH   1   2
HETATM    2  C8    D T 101      -6.330   8.007  -6.586  0.50 44.23     0.033 C 
BRANCH   2   3
HETATM    3  C7    D T 101      -6.337   7.142  -5.325  0.50 45.07     0.149 C 
BRANCH   3   4
HETATM    4  O1    D T 101      -7.170   7.686  -4.294  0.50 45.77    -0.331 OA
BRANCH   4   5
HETATM    5  C1    D T 101      -8.541   7.604  -4.400  0.50 45.59     0.094 A 
HETATM    6  C2    D T 101      -9.174   6.360  -4.386  0.50 45.41     0.024 A 
HETATM    7  C3    D T 101     -10.566   6.282  -4.490  0.50 45.63     0.005 A 
HETATM    8  C4    D T 101     -11.337   7.444  -4.609  0.50 45.70     0.040 A 
HETATM    9  C5    D T 101     -10.695   8.681  -4.624  0.50 45.73     0.005 A 
HETATM   10  C6    D T 101      -9.307   8.764  -4.521  0.50 45.57     0.024 A 
BRANCH   8  11
HETATM   11  C9    D T 101     -12.841   7.369  -4.731  0.50 45.61     0.205 C 
HETATM   12  N1    D T 101     -13.535   6.776  -3.860  0.50 44.78    -0.125 N 
HETATM   13  N2    D T 101     -13.461   7.919  -5.775  0.50 45.85    -0.125 N 
ENDBRANCH   8  11
ENDBRANCH   4   5
ENDBRANCH   3   4
ENDBRANCH   2   3
ENDBRANCH   1   2
BRANCH   1  14
HETATM   14  C8'   D T 101      -4.454   7.245  -8.111  0.50 42.61     0.033 C 
BRANCH  14  15
HETATM   15  C7'   D T 101      -3.952   8.657  -8.424  0.50 41.92     0.149 C 
BRANCH  15  16
HETATM   16  O1'   D T 101      -2.948   8.638  -9.445  0.50 41.20    -0.331 OA
BRANCH  16  17
HETATM   17  C1'   D T 101      -1.697   8.089  -9.279  0.50 40.56     0.094 A 
HETATM   18  C2'   D T 101      -0.880   8.473  -8.220  0.50 40.10     0.024 A 
HETATM   19  C3'   D T 101       0.387   7.922  -8.068  0.50 39.98     0.005 A 
HETATM   20  C4'   D T 101       0.852   6.968  -8.969  0.50 40.28     0.040 A 
HETATM   21  C5'   D T 101       0.038   6.578 -10.036  0.50 40.14     0.005 A 
HETATM   22  C6'   D T 101      -1.232   7.139 -10.191  0.50 40.31     0.024 A 
BRANCH  20  23
HETATM   23  C9'   D T 101       2.224   6.378  -8.784  0.50 40.31     0.205 C 
HETATM   24  N1'   D T 101       2.712   5.624  -9.666  0.50 39.70    -0.125 N 
HETATM   25  N2'   D T 101       2.941   6.650  -7.694  0.50 40.00    -0.125 N 
ENDBRANCH  20  23
ENDBRANCH  16  17
ENDBRANCH  15  16
ENDBRANCH  14  15
ENDBRANCH   1  14
TORSDOF 20
ENDMDL
MODEL 2
REMARK VINA RESULT:    -6.521      0.448     11.222
REMARK INTER + INTRA:         -11.080
REMARK INTER:                 -10.358
REMARK INTRA:                  -0.722
REMARK UNBOUND:                -0.747
REMARK  20 active torsions:
REMARK  status: ('A' for Active; 'I' for Inactive)
REMARK    1  A    between atoms: C1_1  and  O1_20 
REMARK    2  A    between atoms: C4_4  and  C9_9 
REMARK    3  A    between atoms: C7_7  and  C8_8 
REMARK    4  A    between atoms: C7_7  and  O1_20 
REMARK    5  A    between atoms: C8_8  and  C10_10 
REMARK    6  A    between atoms: C10_10  and  C8'_18 
REMARK    7  A    between atoms: C1'_11  and  O1'_21 
REMARK    8  A    between atoms: C4'_14  and  C9'_19 
REMARK    9  A    between atoms: C7'_17  and  C8'_18 
REMARK   10  A    between atoms: C7'_17  and  O1'_21 
REMARK   11  A    between atoms: C1_26  and  O1_45 
REMARK   12  A    between atoms: C4_29  and  C9_34 
REMARK   13  A    between atoms: C7_32  and  C8_33 
REMARK   14  A    between atoms: C7_32  and  O1_45 
REMARK   15  A    between atoms: C8_33  and  C10_35 
REMARK   16  A    between atoms: C10_35  and  C8'_43 
REMARK   17  A    between atoms: C1'_36  and  O1'_46 
REMARK   18  A    between atoms: C4'_39  and  C9'_44 
REMARK   19  A    between atoms: C7'_42  and  C8'_43 
REMARK   20  A    between atoms: C7'_42  and  O1'_46 
ROOT
HETATM    1  C10   D T 101      -5.893   7.153  -7.510  0.50 43.26     0.005 C 
ENDROOT
BRANCH   1   2
HETATM    2  C8    D T 101      -4.501   7.279  -8.129  0.50 44.23     0.033 C 
BRANCH   2   3
HETATM    3  C7    D T 101      -4.147   8.742  -8.398  0.50 45.07     0.149 C 
BRANCH   3   4
HETATM    4  O1    D T 101      -3.198   8.888  -9.461  0.50 45.77    -0.331 OA
BRANCH   4   5
HETATM    5  C1    D T 101      -1.978   8.252  -9.388  0.50 45.59     0.094 A 
HETATM    6  C2    D T 101      -1.059   8.603  -8.397  0.50 45.41     0.024 A 
HETATM    7  C3    D T 101       0.175   7.952  -8.325  0.50 45.63     0.005 A 
HETATM    8  C4    D T 101       0.504   6.946  -9.241  0.50 45.70     0.040 A 
HETATM    9  C5    D T 101      -0.419   6.604 -10.228  0.50 45.73     0.005 A 
HETATM   10  C6    D T 101      -1.652   7.251 -10.303  0.50 45.57     0.024 A 
BRANCH   8  11
HETATM   11  C9    D T 101       1.840   6.244  -9.176  0.50 45.61     0.205 C 
HETATM   12  N1    D T 101       2.685   6.365 -10.106  0.50 44.78    -0.125 N 
HETATM   13  N2    D T 101       2.144   5.467  -8.136  0.50 45.85    -0.125 N 
ENDBRANCH   8  11
ENDBRANCH   4   5
ENDBRANCH   3   4
ENDBRANCH   2   3
ENDBRANCH   1   2
BRANCH   1  14
HETATM   14  C8'   D T 101      -6.026   7.973  -6.228  0.50 42.61     0.033 C 
BRANCH  14  15
HETATM   15  C7'   D T 101      -6.272   7.118  -4.982  0.50 41.92     0.149 C 
BRANCH  15  16
HETATM   16  O1'   D T 101      -7.226   7.733  -4.109  0.50 41.20    -0.331 OA
BRANCH  16  17
HETATM   17  C1'   D T 101      -8.589   7.653  -4.285  0.50 40.56     0.094 A 
HETATM   18  C2'   D T 101      -9.232   6.420  -4.343  0.50 40.10     0.024 A 
HETATM   19  C3'   D T 101     -10.607   6.348  -4.533  0.50 39.98     0.005 A 
HETATM   20  C4'   D T 101     -11.362   7.511  -4.658  0.50 40.28     0.040 A 
HETATM   21  C5'   D T 101     -10.722   8.753  -4.603  0.50 40.14     0.005 A 
HETATM   22  C6'   D T 101      -9.340   8.822  -4.419  0.50 40.31     0.024 A 
BRANCH  20  23
HETATM   23  C9'   D T 101     -12.851   7.413  -4.858  0.50 40.31     0.205 C 
HETATM   24  N1'   D T 101     -13.381   7.883  -5.899  0.50 39.70    -0.125 N 
HETATM   25  N2'   D T 101     -13.623   6.824  -3.945  0.50 40.00    -0.125 N 
ENDBRANCH  20  23
ENDBRANCH  16  17
ENDBRANCH  15  16
ENDBRANCH  14  15
ENDBRANCH   1  14
TORSDOF 20
ENDMDL
MODEL 3
REMARK VINA RESULT:    -6.501      1.535      2.341
REMARK INTER + INTRA:         -11.048
REMARK INTER:                 -10.541
REMARK INTRA:                  -0.507
REMARK UNBOUND:                -0.747
REMARK  20 active torsions:
REMARK  status: ('A' for Active; 'I' for Inactive)
REMARK    1  A    between atoms: C1_1  and  O1_20 
REMARK    2  A    between atoms: C4_4  and  C9_9 
REMARK    3  A    between atoms: C7_7  and  C8_8 
REMARK    4  A    between atoms: C7_7  and  O1_20 
REMARK    5  A    between atoms: C8_8  and  C10_10 
REMARK    6  A    between atoms: C10_10  and  C8'_18 
REMARK    7  A    between atoms: C1'_11  and  O1'_21 
REMARK    8  A    between atoms: C4'_14  and  C9'_19 
REMARK    9  A    between atoms: C7'_17  and  C8'_18 
REMARK   10  A    between atoms: C7'_17  and  O1'_21 
REMARK   11  A    between atoms: C1_26  and  O1_45 
REMARK   12  A    between atoms: C4_29  and  C9_34 
REMARK   13  A    between atoms: C7_32  and  C8_33 
REMARK   14  A    between atoms: C7_32  and  O1_45 
REMARK   15  A    between atoms: C8_33  and  C10_35 
REMARK   16  A    between atoms: C10_35  and  C8'_43 
REMARK   17  A    between atoms: C1'_36  and  O1'_46 
REMARK   18  A    between atoms: C4'_39  and  C9'_44 
REMARK   19  A    between atoms: C7'_42  and  C8'_43 
REMARK   20  A    between atoms: C7'_42  and  O1'_46 
ROOT
HETATM    1  C10   D T 101      -6.234   7.538  -6.366  0.50 43.26     0.005 C 
ENDROOT
BRANCH   1   2
HETATM    2  C8    D T 101      -6.623   6.956  -5.006  0.50 44.23     0.033 C 
BRANCH   2   3
HETATM    3  C7    D T 101      -7.946   7.543  -4.512  0.50 45.07     0.149 C 
BRANCH   3   4
HETATM    4  O1    D T 101      -8.545   6.747  -3.482  0.50 45.77    -0.331 OA
BRANCH   4   5
HETATM    5  C1    D T 101      -9.916   6.689  -3.365  0.50 45.59     0.094 A 
HETATM    6  C2    D T 101     -10.729   7.064  -4.435  0.50 45.41     0.024 A 
HETATM    7  C3    D T 101     -12.120   7.000  -4.313  0.50 45.63     0.005 A 
HETATM    8  C4    D T 101     -12.710   6.561  -3.122  0.50 45.70     0.040 A 
HETATM    9  C5    D T 101     -11.889   6.191  -2.058  0.50 45.73     0.005 A 
HETATM   10  C6    D T 101     -10.502   6.254  -2.176  0.50 45.57     0.024 A 
BRANCH   8  11
HETATM   11  C9    D T 101     -14.213   6.497  -2.978  0.50 45.61     0.205 C 
HETATM   12  N1    D T 101     -14.851   5.450  -3.275  0.50 44.78    -0.125 N 
HETATM   13  N2    D T 101     -14.895   7.558  -2.545  0.50 45.85    -0.125 N 
ENDBRANCH   8  11
ENDBRANCH   4   5
ENDBRANCH   3   4
ENDBRANCH   2   3
ENDBRANCH   1   2
BRANCH   1  14
HETATM   14  C8'   D T 101      -5.369   8.789  -6.227  0.50 42.61     0.033 C 
BRANCH  14  15
HETATM   15  C7'   D T 101      -4.636   9.169  -7.516  0.50 41.92     0.149 C 
BRANCH  15  16
HETATM   16  O1'   D T 101      -3.294   9.590  -7.247  0.50 41.20    -0.331 OA
BRANCH  16  17
HETATM   17  C1'   D T 101      -2.178   8.947  -7.730  0.50 40.56     0.094 A 
HETATM   18  C2'   D T 101      -2.188   8.335  -8.980  0.50 40.10     0.024 A 
HETATM   19  C3'   D T 101      -1.059   7.676  -9.455  0.50 39.98     0.005 A 
HETATM   20  C4'   D T 101       0.102   7.629  -8.688  0.50 40.28     0.040 A 
HETATM   21  C5'   D T 101       0.119   8.239  -7.431  0.50 40.14     0.005 A 
HETATM   22  C6'   D T 101      -1.019   8.894  -6.953  0.50 40.31     0.024 A 
BRANCH  20  23
HETATM   23  C9'   D T 101       1.315   6.916  -9.222  0.50 40.31     0.205 C 
HETATM   24  N1'   D T 101       1.771   5.908  -8.621  0.50 39.70    -0.125 N 
HETATM   25  N2'   D T 101       1.917   7.334 -10.335  0.50 40.00    -0.125 N 
ENDBRANCH  20  23
ENDBRANCH  16  17
ENDBRANCH  15  16
ENDBRANCH  14  15
ENDBRANCH   1  14
TORSDOF 20
ENDMDL
MODEL 4
REMARK VINA RESULT:    -6.406      1.702     11.602
REMARK INTER + INTRA:         -10.898
REMARK INTER:                 -10.296
REMARK INTRA:                  -0.601
REMARK UNBOUND:                -0.747
REMARK  20 active torsions:
REMARK  status: ('A' for Active; 'I' for Inactive)
REMARK    1  A    between atoms: C1_1  and  O1_20 
REMARK    2  A    between atoms: C4_4  and  C9_9 
REMARK    3  A    between atoms: C7_7  and  C8_8 
REMARK    4  A    between atoms: C7_7  and  O1_20 
REMARK    5  A    between atoms: C8_8  and  C10_10 
REMARK    6  A    between atoms: C10_10  and  C8'_18 
REMARK    7  A    between atoms: C1'_11  and  O1'_21 
REMARK    8  A    between atoms: C4'_14  and  C9'_19 
REMARK    9  A    between atoms: C7'_17  and  C8'_18 
REMARK   10  A    between atoms: C7'_17  and  O1'_21 
REMARK   11  A    between atoms: C1_26  and  O1_45 
REMARK   12  A    between atoms: C4_29  and  C9_34 
REMARK   13  A    between atoms: C7_32  and  C8_33 
REMARK   14  A    between atoms: C7_32  and  O1_45 
REMARK   15  A    between atoms: C8_33  and  C10_35 
REMARK   16  A    between atoms: C10_35  and  C8'_43 
REMARK   17  A    between atoms: C1'_36  and  O1'_46 
REMARK   18  A    between atoms: C4'_39  and  C9'_44 
REMARK   19  A    between atoms: C7'_42  and  C8'_43 
REMARK   20  A    between atoms: C7'_42  and  O1'_46 
ROOT
HETATM    1  C10   D T 101      -6.920   7.918  -5.971  0.50 43.26     0.005 C 
ENDROOT
BRANCH   1   2
HETATM    2  C8    D T 101      -5.894   7.484  -7.017  0.50 44.23     0.033 C 
BRANCH   2   3
HETATM    3  C7    D T 101      -5.366   8.684  -7.804  0.50 45.07     0.149 C 
BRANCH   3   4
HETATM    4  O1    D T 101      -4.132   9.184  -7.273  0.50 45.77    -0.331 OA
BRANCH   4   5
HETATM    5  C1    D T 101      -2.933   8.761  -7.803  0.50 45.59     0.094 A 
HETATM    6  C2    D T 101      -2.905   8.050  -9.004  0.50 45.41     0.024 A 
HETATM    7  C3    D T 101      -1.685   7.627  -9.539  0.50 45.63     0.005 A 
HETATM    8  C4    D T 101      -0.483   7.910  -8.880  0.50 45.70     0.040 A 
HETATM    9  C5    D T 101      -0.521   8.619  -7.681  0.50 45.73     0.005 A 
HETATM   10  C6    D T 101      -1.736   9.042  -7.143  0.50 45.57     0.024 A 
BRANCH   8  11
HETATM   11  C9    D T 101       0.840   7.449  -9.447  0.50 45.61     0.205 C 
HETATM   12  N1    D T 101       1.345   8.009 -10.458  0.50 44.78    -0.125 N 
HETATM   13  N2    D T 101       1.491   6.426  -8.892  0.50 45.85    -0.125 N 
ENDBRANCH   8  11
ENDBRANCH   4   5
ENDBRANCH   3   4
ENDBRANCH   2   3
ENDBRANCH   1   2
BRANCH   1  14
HETATM   14  C8'   D T 101      -6.507   7.507  -4.558  0.50 42.61     0.033 C 
BRANCH  14  15
HETATM   15  C7'   D T 101      -7.690   7.121  -3.667  0.50 41.92     0.149 C 
BRANCH  15  16
HETATM   16  O1'   D T 101      -8.856   6.828  -4.445  0.50 41.20    -0.331 OA
BRANCH  16  17
HETATM   17  C1'   D T 101     -10.114   6.671  -3.911  0.50 40.56     0.094 A 
HETATM   18  C2'   D T 101     -10.292   6.115  -2.647  0.50 40.10     0.024 A 
HETATM   19  C3'   D T 101     -11.567   5.948  -2.120  0.50 39.98     0.005 A 
HETATM   20  C4'   D T 101     -12.686   6.345  -2.847  0.50 40.28     0.040 A 
HETATM   21  C5'   D T 101     -12.516   6.902  -4.118  0.50 40.14     0.005 A 
HETATM   22  C6'   D T 101     -11.234   7.062  -4.648  0.50 40.31     0.024 A 
BRANCH  20  23
HETATM   23  C9'   D T 101     -14.058   6.161  -2.257  0.50 40.31     0.205 C 
HETATM   24  N1'   D T 101     -14.244   6.333  -1.023  0.50 39.70    -0.125 N 
HETATM   25  N2'   D T 101     -15.092   5.823  -3.028  0.50 40.00    -0.125 N 
ENDBRANCH  20  23
ENDBRANCH  16  17
ENDBRANCH  15  16
ENDBRANCH  14  15
ENDBRANCH   1  14
TORSDOF 20
ENDMDL
MODEL 5
REMARK VINA RESULT:    -6.345      9.378     11.749
REMARK INTER + INTRA:         -10.801
REMARK INTER:                  -9.188
REMARK INTRA:                  -1.612
REMARK UNBOUND:                -0.747
REMARK  20 active torsions:
REMARK  status: ('A' for Active; 'I' for Inactive)
REMARK    1  A    between atoms: C1_1  and  O1_20 
REMARK    2  A    between atoms: C4_4  and  C9_9 
REMARK    3  A    between atoms: C7_7  and  C8_8 
REMARK    4  A    between atoms: C7_7  and  O1_20 
REMARK    5  A    between atoms: C8_8  and  C10_10 
REMARK    6  A    between atoms: C10_10  and  C8'_18 
REMARK    7  A    between atoms: C1'_11  and  O1'_21 
REMARK    8  A    between atoms: C4'_14  and  C9'_19 
REMARK    9  A    between atoms: C7'_17  and  C8'_18 
REMARK   10  A    between atoms: C7'_17  and  O1'_21 
REMARK   11  A    between atoms: C1_26  and  O1_45 
REMARK   12  A    between atoms: C4_29  and  C9_34 
REMARK   13  A    between atoms: C7_32  and  C8_33 
REMARK   14  A    between atoms: C7_32  and  O1_45 
REMARK   15  A    between atoms: C8_33  and  C10_35 
REMARK   16  A    between atoms: C10_35  and  C8'_43 
REMARK   17  A    between atoms: C1'_36  and  O1'_46 
REMARK   18  A    between atoms: C4'_39  and  C9'_44 
REMARK   19  A    between atoms: C7'_42  and  C8'_43 
REMARK   20  A    between atoms: C7'_42  and  O1'_46 
ROOT
HETATM    1  C10   D T 101       0.069   8.232 -14.991  0.50 43.26     0.005 C 
ENDROOT
BRANCH   1   2
HETATM    2  C8    D T 101       0.026   9.746 -14.776  0.50 44.23     0.033 C 
BRANCH   2   3
HETATM    3  C7    D T 101       0.287  10.103 -13.312  0.50 45.07     0.149 C 
BRANCH   3   4
HETATM    4  O1    D T 101       1.634   9.823 -12.914  0.50 45.77    -0.331 OA
BRANCH   4   5
HETATM    5  C1    D T 101       1.889   8.833 -11.991  0.50 45.59     0.094 A 
HETATM    6  C2    D T 101       0.837   8.226 -11.302  0.50 45.41     0.024 A 
HETATM    7  C3    D T 101       1.100   7.220 -10.369  0.50 45.63     0.005 A 
HETATM    8  C4    D T 101       2.415   6.811 -10.114  0.50 45.70     0.040 A 
HETATM    9  C5    D T 101       3.458   7.425 -10.805  0.50 45.73     0.005 A 
HETATM   10  C6    D T 101       3.200   8.429 -11.737  0.50 45.57     0.024 A 
BRANCH   8  11
HETATM   11  C9    D T 101       2.709   5.730  -9.101  0.50 45.61     0.205 C 
HETATM   12  N1    D T 101       3.425   4.735  -9.400  0.50 44.78    -0.125 N 
HETATM   13  N2    D T 101       2.201   5.804  -7.870  0.50 45.85    -0.125 N 
ENDBRANCH   8  11
ENDBRANCH   4   5
ENDBRANCH   3   4
ENDBRANCH   2   3
ENDBRANCH   1   2
BRANCH   1  14
HETATM   14  C8'   D T 101       0.105   7.865 -16.473  0.50 42.61     0.033 C 
BRANCH  14  15
HETATM   15  C7'   D T 101       1.147   6.796 -16.810  0.50 41.92     0.149 C 
BRANCH  15  16
HETATM   16  O1'   D T 101       2.342   7.382 -17.339  0.50 41.20    -0.331 OA
BRANCH  16  17
HETATM   17  C1'   D T 101       2.966   8.479 -16.789  0.50 40.56     0.094 A 
HETATM   18  C2'   D T 101       2.811   9.745 -17.344  0.50 40.10     0.024 A 
HETATM   19  C3'   D T 101       3.454  10.845 -16.789  0.50 39.98     0.005 A 
HETATM   20  C4'   D T 101       4.258  10.695 -15.662  0.50 40.28     0.040 A 
HETATM   21  C5'   D T 101       4.421   9.425 -15.100  0.50 40.14     0.005 A 
HETATM   22  C6'   D T 101       3.778   8.321 -15.664  0.50 40.31     0.024 A 
BRANCH  20  23
HETATM   23  C9'   D T 101       4.942  11.899 -15.072  0.50 40.31     0.205 C 
HETATM   24  N1'   D T 101       4.709  13.047 -15.534  0.50 39.70    -0.125 N 
HETATM   25  N2'   D T 101       5.794  11.769 -14.055  0.50 40.00    -0.125 N 
ENDBRANCH  20  23
ENDBRANCH  16  17
ENDBRANCH  15  16
ENDBRANCH  14  15
ENDBRANCH   1  14
TORSDOF 20
ENDMDL
MODEL 6
REMARK VINA RESULT:    -6.263      8.894     13.113
REMARK INTER + INTRA:         -10.670
REMARK INTER:                  -9.201
REMARK INTRA:                  -1.469
REMARK UNBOUND:                -0.747
REMARK  20 active torsions:
REMARK  status: ('A' for Active; 'I' for Inactive)
REMARK    1  A    between atoms: C1_1  and  O1_20 
REMARK    2  A    between atoms: C4_4  and  C9_9 
REMARK    3  A    between atoms: C7_7  and  C8_8 
REMARK    4  A    between atoms: C7_7  and  O1_20 
REMARK    5  A    between atoms: C8_8  and  C10_10 
REMARK    6  A    between atoms: C10_10  and  C8'_18 
REMARK    7  A    between atoms: C1'_11  and  O1'_21 
REMARK    8  A    between atoms: C4'_14  and  C9'_19 
REMARK    9  A    between atoms: C7'_17  and  C8'_18 
REMARK   10  A    between atoms: C7'_17  and  O1'_21 
REMARK   11  A    between atoms: C1_26  and  O1_45 
REMARK   12  A    between atoms: C4_29  and  C9_34 
REMARK   13  A    between atoms: C7_32  and  C8_33 
REMARK   14  A    between atoms: C7_32  and  O1_45 
REMARK   15  A    between atoms: C8_33  and  C10_35 
REMARK   16  A    between atoms: C10_35  and  C8'_43 
REMARK   17  A    between atoms: C1'_36  and  O1'_46 
REMARK   18  A    between atoms: C4'_39  and  C9'_44 
REMARK   19  A    between atoms: C7'_42  and  C8'_43 
REMARK   20  A    between atoms: C7'_42  and  O1'_46 
ROOT
HETATM    1  C10   D T 101      -0.439   8.846 -15.196  0.50 43.26     0.005 C 
ENDROOT
BRANCH   1   2
HETATM    2  C8    D T 101       0.307   7.657 -15.801  0.50 44.23     0.033 C 
BRANCH   2   3
HETATM    3  C7    D T 101       0.931   8.023 -17.148  0.50 45.07     0.149 C 
BRANCH   3   4
HETATM    4  O1    D T 101       2.359   7.908 -17.137  0.50 45.77    -0.331 OA
BRANCH   4   5
HETATM    5  C1    D T 101       3.125   8.884 -16.537  0.50 45.59     0.094 A 
HETATM    6  C2    D T 101       3.100  10.193 -17.019  0.50 45.41     0.024 A 
HETATM    7  C3    D T 101       3.876  11.180 -16.405  0.50 45.63     0.005 A 
HETATM    8  C4    D T 101       4.683  10.868 -15.305  0.50 45.70     0.040 A 
HETATM    9  C5    D T 101       4.703   9.557 -14.832  0.50 45.73     0.005 A 
HETATM   10  C6    D T 101       3.931   8.570 -15.442  0.50 45.57     0.024 A 
BRANCH   8  11
HETATM   11  C9    D T 101       5.532  11.926 -14.640  0.50 45.61     0.205 C 
HETATM   12  N1    D T 101       6.358  11.624 -13.734  0.50 44.78    -0.125 N 
HETATM   13  N2    D T 101       5.412  13.207 -14.992  0.50 45.85    -0.125 N 
ENDBRANCH   8  11
ENDBRANCH   4   5
ENDBRANCH   3   4
ENDBRANCH   2   3
ENDBRANCH   1   2
BRANCH   1  14
HETATM   14  C8'   D T 101       0.431   9.630 -14.216  0.50 42.61     0.033 C 
BRANCH  14  15
HETATM   15  C7'   D T 101      -0.176   9.738 -12.815  0.50 41.92     0.149 C 
BRANCH  15  16
HETATM   16  O1'   D T 101       0.842   9.791 -11.809  0.50 41.20    -0.331 OA
BRANCH  16  17
HETATM   17  C1'   D T 101       1.278   8.694 -11.101  0.50 40.56     0.094 A 
HETATM   18  C2'   D T 101       0.453   8.067 -10.172  0.50 40.10     0.024 A 
HETATM   19  C3'   D T 101       0.906   6.967  -9.453  0.50 39.98     0.005 A 
HETATM   20  C4'   D T 101       2.190   6.471  -9.660  0.50 40.28     0.040 A 
HETATM   21  C5'   D T 101       3.025   7.097 -10.590  0.50 40.14     0.005 A 
HETATM   22  C6'   D T 101       2.570   8.207 -11.306  0.50 40.31     0.024 A 
BRANCH  20  23
HETATM   23  C9'   D T 101       2.660   5.276  -8.875  0.50 40.31     0.205 C 
HETATM   24  N1'   D T 101       2.112   4.984  -7.780  0.50 39.70    -0.125 N 
HETATM   25  N2'   D T 101       3.651   4.509  -9.329  0.50 40.00    -0.125 N 
ENDBRANCH  20  23
ENDBRANCH  16  17
ENDBRANCH  15  16
ENDBRANCH  14  15
ENDBRANCH   1  14
TORSDOF 20
ENDMDL
MODEL 7
REMARK VINA RESULT:    -6.216      1.172     10.863
REMARK INTER + INTRA:         -10.597
REMARK INTER:                  -9.955
REMARK INTRA:                  -0.641
REMARK UNBOUND:                -0.747
REMARK  20 active torsions:
REMARK  status: ('A' for Active; 'I' for Inactive)
REMARK    1  A    between atoms: C1_1  and  O1_20 
REMARK    2  A    between atoms: C4_4  and  C9_9 
REMARK    3  A    between atoms: C7_7  and  C8_8 
REMARK    4  A    between atoms: C7_7  and  O1_20 
REMARK    5  A    between atoms: C8_8  and  C10_10 
REMARK    6  A    between atoms: C10_10  and  C8'_18 
REMARK    7  A    between atoms: C1'_11  and  O1'_21 
REMARK    8  A    between atoms: C4'_14  and  C9'_19 
REMARK    9  A    between atoms: C7'_17  and  C8'_18 
REMARK   10  A    between atoms: C7'_17  and  O1'_21 
REMARK   11  A    between atoms: C1_26  and  O1_45 
REMARK   12  A    between atoms: C4_29  and  C9_34 
REMARK   13  A    between atoms: C7_32  and  C8_33 
REMARK   14  A    between atoms: C7_32  and  O1_45 
REMARK   15  A    between atoms: C8_33  and  C10_35 
REMARK   16  A    between atoms: C10_35  and  C8'_43 
REMARK   17  A    between atoms: C1'_36  and  O1'_46 
REMARK   18  A    between atoms: C4'_39  and  C9'_44 
REMARK   19  A    between atoms: C7'_42  and  C8'_43 
REMARK   20  A    between atoms: C7'_42  and  O1'_46 
ROOT
HETATM    1  C10   D T 101      -6.299   8.178  -8.990  0.50 43.26     0.005 C 
ENDROOT
BRANCH   1   2
HETATM    2  C8    D T 101      -5.390   9.107  -9.796  0.50 44.23     0.033 C 
BRANCH   2   3
HETATM    3  C7    D T 101      -4.059   8.429 -10.124  0.50 45.07     0.149 C 
BRANCH   3   4
HETATM    4  O1    D T 101      -2.973   8.958  -9.354  0.50 45.77    -0.331 OA
BRANCH   4   5
HETATM    5  C1    D T 101      -1.782   8.270  -9.278  0.50 45.59     0.094 A 
HETATM    6  C2    D T 101      -1.456   7.319 -10.246  0.50 45.41     0.024 A 
HETATM    7  C3    D T 101      -0.244   6.626 -10.166  0.50 45.63     0.005 A 
HETATM    8  C4    D T 101       0.651   6.877  -9.120  0.50 45.70     0.040 A 
HETATM    9  C5    D T 101       0.315   7.827  -8.156  0.50 45.73     0.005 A 
HETATM   10  C6    D T 101      -0.892   8.520  -8.232  0.50 45.57     0.024 A 
BRANCH   8  11
HETATM   11  C9    D T 101       1.959   6.126  -9.021  0.50 45.61     0.205 C 
HETATM   12  N1    D T 101       2.282   5.520  -7.962  0.50 44.78    -0.125 N 
HETATM   13  N2    D T 101       2.804   6.105 -10.052  0.50 45.85    -0.125 N 
ENDBRANCH   8  11
ENDBRANCH   4   5
ENDBRANCH   3   4
ENDBRANCH   2   3
ENDBRANCH   1   2
BRANCH   1  14
HETATM   14  C8'   D T 101      -5.545   7.478  -7.861  0.50 42.61     0.033 C 
BRANCH  14  15
HETATM   15  C7'   D T 101      -5.869   8.038  -6.474  0.50 41.92     0.149 C 
BRANCH  15  16
HETATM   16  O1'   D T 101      -6.451   7.037  -5.631  0.50 41.20    -0.331 OA
BRANCH  16  17
HETATM   17  C1'   D T 101      -7.693   7.153  -5.049  0.50 40.56     0.094 A 
HETATM   18  C2'   D T 101      -8.143   8.375  -4.558  0.50 40.10     0.024 A 
HETATM   19  C3'   D T 101      -9.394   8.480  -3.961  0.50 39.98     0.005 A 
HETATM   20  C4'   D T 101     -10.219   7.363  -3.855  0.50 40.28     0.040 A 
HETATM   21  C5'   D T 101      -9.773   6.132  -4.344  0.50 40.14     0.005 A 
HETATM   22  C6'   D T 101      -8.513   6.028  -4.937  0.50 40.31     0.024 A 
BRANCH  20  23
HETATM   23  C9'   D T 101     -11.572   7.498  -3.210  0.50 40.31     0.205 C 
HETATM   24  N1'   D T 101     -12.211   8.580  -3.303  0.50 39.70    -0.125 N 
HETATM   25  N2'   D T 101     -12.114   6.480  -2.543  0.50 40.00    -0.125 N 
ENDBRANCH  20  23
ENDBRANCH  16  17
ENDBRANCH  15  16
ENDBRANCH  14  15
ENDBRANCH   1  14
TORSDOF 20
ENDMDL
MODEL 8
REMARK VINA RESULT:    -6.075      2.907      4.565
REMARK INTER + INTRA:         -10.373
REMARK INTER:                  -9.597
REMARK INTRA:                  -0.776
REMARK UNBOUND:                -0.747
REMARK  20 active torsions:
REMARK  status: ('A' for Active; 'I' for Inactive)
REMARK    1  A    between atoms: C1_1  and  O1_20 
REMARK    2  A    between atoms: C4_4  and  C9_9 
REMARK    3  A    between atoms: C7_7  and  C8_8 
REMARK    4  A    between atoms: C7_7  and  O1_20 
REMARK    5  A    between atoms: C8_8  and  C10_10 
REMARK    6  A    between atoms: C10_10  and  C8'_18 
REMARK    7  A    between atoms: C1'_11  and  O1'_21 
REMARK    8  A    between atoms: C4'_14  and  C9'_19 
REMARK    9  A    between atoms: C7'_17  and  C8'_18 
REMARK   10  A    between atoms: C7'_17  and  O1'_21 
REMARK   11  A    between atoms: C1_26  and  O1_45 
REMARK   12  A    between atoms: C4_29  and  C9_34 
REMARK   13  A    between atoms: C7_32  and  C8_33 
REMARK   14  A    between atoms: C7_32  and  O1_45 
REMARK   15  A    between atoms: C8_33  and  C10_35 
REMARK   16  A    between atoms: C10_35  and  C8'_43 
REMARK   17  A    between atoms: C1'_36  and  O1'_46 
REMARK   18  A    between atoms: C4'_39  and  C9'_44 
REMARK   19  A    between atoms: C7'_42  and  C8'_43 
REMARK   20  A    between atoms: C7'_42  and  O1'_46 
ROOT
HETATM    1  C10   D T 101      -2.424   7.910 -11.823  0.50 43.26     0.005 C 
ENDROOT
BRANCH   1   2
HETATM    2  C8    D T 101      -3.812   8.477 -11.524  0.50 44.23     0.033 C 
BRANCH   2   3
HETATM    3  C7    D T 101      -3.841   9.176 -10.165  0.50 45.07     0.149 C 
BRANCH   3   4
HETATM    4  O1    D T 101      -3.703   8.256  -9.075  0.50 45.77    -0.331 OA
BRANCH   4   5
HETATM    5  C1    D T 101      -4.621   8.261  -8.048  0.50 45.59     0.094 A 
HETATM    6  C2    D T 101      -5.478   7.175  -7.864  0.50 45.41     0.024 A 
HETATM    7  C3    D T 101      -6.404   7.183  -6.818  0.50 45.63     0.005 A 
HETATM    8  C4    D T 101      -6.484   8.276  -5.947  0.50 45.70     0.040 A 
HETATM    9  C5    D T 101      -5.626   9.358  -6.140  0.50 45.73     0.005 A 
HETATM   10  C6    D T 101      -4.700   9.353  -7.183  0.50 45.57     0.024 A 
BRANCH   8  11
HETATM   11  C9    D T 101      -7.489   8.298  -4.819  0.50 45.61     0.205 C 
HETATM   12  N1    D T 101      -8.063   9.369  -4.479  0.50 44.78    -0.125 N 
HETATM   13  N2    D T 101      -7.777   7.181  -4.151  0.50 45.85    -0.125 N 
ENDBRANCH   8  11
ENDBRANCH   4   5
ENDBRANCH   3   4
ENDBRANCH   2   3
ENDBRANCH   1   2
BRANCH   1  14
HETATM   14  C8'   D T 101      -1.544   8.912 -12.570  0.50 42.61     0.033 C 
BRANCH  14  15
HETATM   15  C7'   D T 101      -0.911   9.964 -11.657  0.50 41.92     0.149 C 
BRANCH  15  16
HETATM   16  O1'   D T 101       0.492   9.732 -11.490  0.50 41.20    -0.331 OA
BRANCH  16  17
HETATM   17  C1'   D T 101       1.016   8.644 -10.830  0.50 40.56     0.094 A 
HETATM   18  C2'   D T 101       2.090   7.934 -11.359  0.50 40.10     0.024 A 
HETATM   19  C3'   D T 101       2.604   6.829 -10.691  0.50 39.98     0.005 A 
HETATM   20  C4'   D T 101       2.057   6.421  -9.478  0.50 40.28     0.040 A 
HETATM   21  C5'   D T 101       0.976   7.127  -8.942  0.50 40.14     0.005 A 
HETATM   22  C6'   D T 101       0.456   8.234  -9.618  0.50 40.31     0.024 A 
BRANCH  20  23
HETATM   23  C9'   D T 101       2.631   5.225  -8.768  0.50 40.31     0.205 C 
HETATM   24  N1'   D T 101       3.538   4.542  -9.314  0.50 39.70    -0.125 N 
HETATM   25  N2'   D T 101       2.197   4.877  -7.557  0.50 40.00    -0.125 N 
ENDBRANCH  20  23
ENDBRANCH  16  17
ENDBRANCH  15  16
ENDBRANCH  14  15
ENDBRANCH   1  14
TORSDOF 20
ENDMDL
MODEL 9
REMARK VINA RESULT:    -6.000      6.662      8.807
REMARK INTER + INTRA:         -10.254
REMARK INTER:                  -8.036
REMARK INTRA:                  -2.218
REMARK UNBOUND:                -0.747
REMARK  20 active torsions:
REMARK  status: ('A' for Active; 'I' for Inactive)
REMARK    1  A    between atoms: C1_1  and  O1_20 
REMARK    2  A    between atoms: C4_4  and  C9_9 
REMARK    3  A    between atoms: C7_7  and  C8_8 
REMARK    4  A    between atoms: C7_7  and  O1_20 
REMARK    5  A    between atoms: C8_8  and  C10_10 
REMARK    6  A    between atoms: C10_10  and  C8'_18 
REMARK    7  A    between atoms: C1'_11  and  O1'_21 
REMARK    8  A    between atoms: C4'_14  and  C9'_19 
REMARK    9  A    between atoms: C7'_17  and  C8'_18 
REMARK   10  A    between atoms: C7'_17  and  O1'_21 
REMARK   11  A    between atoms: C1_26  and  O1_45 
REMARK   12  A    between atoms: C4_29  and  C9_34 
REMARK   13  A    between atoms: C7_32  and  C8_33 
REMARK   14  A    between atoms: C7_32  and  O1_45 
REMARK   15  A    between atoms: C8_33  and  C10_35 
REMARK   16  A    between atoms: C10_35  and  C8'_43 
REMARK   17  A    between atoms: C1'_36  and  O1'_46 
REMARK   18  A    between atoms: C4'_39  and  C9'_44 
REMARK   19  A    between atoms: C7'_42  and  C8'_43 
REMARK   20  A    between atoms: C7'_42  and  O1'_46 
ROOT
HETATM    1  C10   D T 101      -4.733  10.597 -10.146  0.50 43.26     0.005 C 
ENDROOT
BRANCH   1   2
HETATM    2  C8    D T 101      -4.874   9.156  -9.656  0.50 44.23     0.033 C 
BRANCH   2   3
HETATM    3  C7    D T 101      -3.559   8.640  -9.070  0.50 45.07     0.149 C 
BRANCH   3   4
HETATM    4  O1    D T 101      -2.699   8.081 -10.071  0.50 45.77    -0.331 OA
BRANCH   4   5
HETATM    5  C1    D T 101      -1.440   7.640  -9.729  0.50 45.59     0.094 A 
HETATM    6  C2    D T 101      -0.805   8.139  -8.590  0.50 45.41     0.024 A 
HETATM    7  C3    D T 101       0.472   7.685  -8.246  0.50 45.63     0.005 A 
HETATM    8  C4    D T 101       1.125   6.731  -9.035  0.50 45.70     0.040 A 
HETATM    9  C5    D T 101       0.484   6.241 -10.171  0.50 45.73     0.005 A 
HETATM   10  C6    D T 101      -0.789   6.691 -10.518  0.50 45.57     0.024 A 
BRANCH   8  11
HETATM   11  C9    D T 101       2.509   6.242  -8.675  0.50 45.61     0.205 C 
HETATM   12  N1    D T 101       3.092   5.369  -9.374  0.50 44.78    -0.125 N 
HETATM   13  N2    D T 101       3.133   6.718  -7.598  0.50 45.85    -0.125 N 
ENDBRANCH   8  11
ENDBRANCH   4   5
ENDBRANCH   3   4
ENDBRANCH   2   3
ENDBRANCH   1   2
BRANCH   1  14
HETATM   14  C8'   D T 101      -4.199  10.666 -11.576  0.50 42.61     0.033 C 
BRANCH  14  15
HETATM   15  C7'   D T 101      -2.702  10.973 -11.652  0.50 41.92     0.149 C 
BRANCH  15  16
HETATM   16  O1'   D T 101      -2.061  10.195 -12.669  0.50 41.20    -0.331 OA
BRANCH  16  17
HETATM   17  C1'   D T 101      -0.750   9.781 -12.606  0.50 40.56     0.094 A 
HETATM   18  C2'   D T 101      -0.259   8.820 -13.484  0.50 40.10     0.024 A 
HETATM   19  C3'   D T 101       1.063   8.398 -13.404  0.50 39.98     0.005 A 
HETATM   20  C4'   D T 101       1.918   8.941 -12.449  0.50 40.28     0.040 A 
HETATM   21  C5'   D T 101       1.432   9.906 -11.563  0.50 40.14     0.005 A 
HETATM   22  C6'   D T 101       0.101  10.322 -11.640  0.50 40.31     0.024 A 
BRANCH  20  23
HETATM   23  C9'   D T 101       3.348   8.476 -12.383  0.50 40.31     0.205 C 
HETATM   24  N1'   D T 101       4.001   8.287 -13.444  0.50 39.70    -0.125 N 
HETATM   25  N2'   D T 101       3.943   8.266 -11.209  0.50 40.00    -0.125 N 
ENDBRANCH  20  23
ENDBRANCH  16  17
ENDBRANCH  15  16
ENDBRANCH  14  15
ENDBRANCH   1  14
TORSDOF 20
ENDMDL
