MODEL 1
REMARK VINA RESULT:    -7.775      0.000      0.000
REMARK INTER + INTRA:          -8.937
REMARK INTER:                  -8.685
REMARK INTRA:                  -0.252
REMARK UNBOUND:                -0.252
REMARK  2 active torsions:
REMARK  status: ('A' for Active; 'I' for Inactive)
REMARK    1  A    between atoms: C5_4  and  O7_13 
REMARK    2  A    between atoms: C8_10  and  O7_13 
ROOT
HETATM    1  O7    D T 400       5.655   0.155  -7.672  1.00 63.04    -0.304 OA
ENDROOT
BRANCH   1   2
HETATM    2  C5    D T 400       4.947   1.051  -6.925  1.00 59.76     0.125 A 
HETATM    3  C6    D T 400       3.957   0.587  -6.087  1.00 54.83     0.154 A 
HETATM    4  C1    D T 400       3.242   1.482  -5.294  1.00 54.43     0.041 A 
HETATM    5  O17   D T 400       3.704  -0.747  -6.068  1.00 54.30    -0.188 OA
HETATM    6  C2    D T 400       3.542   2.838  -5.368  1.00 50.51     0.060 A 
HETATM    7  C3    D T 400       4.541   3.307  -6.211  1.00 52.10     0.014 A 
HETATM    8 CL14   D T 400       2.648   4.011  -4.374  1.00 49.50    -0.082 Cl
HETATM    9  C4    D T 400       5.260   2.406  -6.982  1.00 57.51     0.028 A 
ENDBRANCH   1   2
BRANCH   1  10
HETATM   10  C8    D T 400       6.151   0.492  -8.895  1.00 59.17     0.111 A 
HETATM   11  C9    D T 400       5.278   0.462  -9.954  1.00 58.03     0.081 A 
HETATM   12  C10   D T 400       5.698   0.783 -11.223  1.00 63.10     0.025 A 
HETATM   13 CL16   D T 400       3.572  -0.001  -9.679  1.00 86.42    -0.080 Cl
HETATM   14  C11   D T 400       7.018   1.133 -11.416  1.00 63.97     0.059 A 
HETATM   15  C12   D T 400       7.918   1.167 -10.350  1.00 65.40     0.013 A 
HETATM   16 CL15   D T 400       7.519   1.537 -13.081  1.00 74.53    -0.082 Cl
HETATM   17  C13   D T 400       7.487   0.836  -9.070  1.00 59.83     0.026 A 
ENDBRANCH   1  10
TORSDOF 2
ENDMDL
MODEL 2
REMARK VINA RESULT:    -7.661      9.493     12.429
REMARK INTER + INTRA:          -8.809
REMARK INTER:                  -8.400
REMARK INTRA:                  -0.408
REMARK UNBOUND:                -0.252
REMARK  2 active torsions:
REMARK  status: ('A' for Active; 'I' for Inactive)
REMARK    1  A    between atoms: C5_4  and  O7_13 
REMARK    2  A    between atoms: C8_10  and  O7_13 
ROOT
HETATM    1  O7    D T 400       5.786   5.559   3.216  1.00 63.04    -0.304 OA
ENDROOT
BRANCH   1   2
HETATM    2  C5    D T 400       5.596   5.841   1.894  1.00 59.76     0.125 A 
HETATM    3  C6    D T 400       5.777   7.134   1.454  1.00 54.83     0.154 A 
HETATM    4  C1    D T 400       5.617   7.437   0.104  1.00 54.43     0.041 A 
HETATM    5  O17   D T 400       6.105   8.083   2.368  1.00 54.30    -0.188 OA
HETATM    6  C2    D T 400       5.270   6.420  -0.780  1.00 50.51     0.060 A 
HETATM    7  C3    D T 400       5.088   5.116  -0.338  1.00 52.10     0.014 A 
HETATM    8 CL14   D T 400       5.052   6.770  -2.510  1.00 49.50    -0.082 Cl
HETATM    9  C4    D T 400       5.269   4.821   1.004  1.00 57.51     0.028 A 
ENDBRANCH   1   2
BRANCH   1  10
HETATM   10  C8    D T 400       6.804   4.752   3.626  1.00 59.17     0.111 A 
HETATM   11  C9    D T 400       6.532   3.871   4.643  1.00 58.03     0.081 A 
HETATM   12  C10   D T 400       7.504   3.025   5.121  1.00 63.10     0.025 A 
HETATM   13 CL16   D T 400       4.893   3.824   5.356  1.00 86.42    -0.080 Cl
HETATM   14  C11   D T 400       8.764   3.079   4.561  1.00 63.97     0.059 A 
HETATM   15  C12   D T 400       9.056   3.970   3.528  1.00 65.40     0.013 A 
HETATM   16 CL15   D T 400       9.995   1.965   5.217  1.00 74.53    -0.082 Cl
HETATM   17  C13   D T 400       8.069   4.827   3.054  1.00 59.83     0.026 A 
ENDBRANCH   1  10
TORSDOF 2
ENDMDL
MODEL 3
REMARK VINA RESULT:    -7.630      1.155      5.751
REMARK INTER + INTRA:          -8.775
REMARK INTER:                  -8.607
REMARK INTRA:                  -0.168
REMARK UNBOUND:                -0.252
REMARK  2 active torsions:
REMARK  status: ('A' for Active; 'I' for Inactive)
REMARK    1  A    between atoms: C5_4  and  O7_13 
REMARK    2  A    between atoms: C8_10  and  O7_13 
ROOT
HETATM    1  O7    D T 400       5.781   0.245  -7.710  1.00 63.04    -0.304 OA
ENDROOT
BRANCH   1   2
HETATM    2  C5    D T 400       6.196   0.523  -8.980  1.00 59.76     0.125 A 
HETATM    3  C6    D T 400       5.276   0.492 -10.005  1.00 54.83     0.154 A 
HETATM    4  C1    D T 400       5.673   0.800 -11.303  1.00 54.43     0.041 A 
HETATM    5  O17   D T 400       3.996   0.150  -9.708  1.00 54.30    -0.188 OA
HETATM    6  C2    D T 400       7.002   1.132 -11.543  1.00 50.51     0.060 A 
HETATM    7  C3    D T 400       7.930   1.165 -10.510  1.00 52.10     0.014 A 
HETATM    8 CL14   D T 400       7.546   1.528 -13.189  1.00 49.50    -0.082 Cl
HETATM    9  C4    D T 400       7.521   0.875  -9.218  1.00 57.51     0.028 A 
ENDBRANCH   1   2
BRANCH   1  10
HETATM   10  C8    D T 400       5.102   1.166  -6.972  1.00 59.17     0.111 A 
HETATM   11  C9    D T 400       4.123   0.696  -6.132  1.00 58.03     0.081 A 
HETATM   12  C10   D T 400       3.386   1.559  -5.356  1.00 63.10     0.025 A 
HETATM   13 CL16   D T 400       3.803  -1.061  -6.046  1.00 86.42    -0.080 Cl
HETATM   14  C11   D T 400       3.645   2.912  -5.439  1.00 63.97     0.059 A 
HETATM   15  C12   D T 400       4.635   3.405  -6.289  1.00 65.40     0.013 A 
HETATM   16 CL15   D T 400       2.660   3.994  -4.417  1.00 74.53    -0.082 Cl
HETATM   17  C13   D T 400       5.373   2.526  -7.075  1.00 59.83     0.026 A 
ENDBRANCH   1  10
TORSDOF 2
ENDMDL
MODEL 4
REMARK VINA RESULT:    -7.609      3.356      5.978
REMARK INTER + INTRA:          -8.750
REMARK INTER:                  -8.236
REMARK INTRA:                  -0.514
REMARK UNBOUND:                -0.252
REMARK  2 active torsions:
REMARK  status: ('A' for Active; 'I' for Inactive)
REMARK    1  A    between atoms: C5_4  and  O7_13 
REMARK    2  A    between atoms: C8_10  and  O7_13 
ROOT
HETATM    1  O7    D T 400       6.283   1.675  -7.680  1.00 63.04    -0.304 OA
ENDROOT
BRANCH   1   2
HETATM    2  C5    D T 400       6.526   1.543  -9.017  1.00 59.76     0.125 A 
HETATM    3  C6    D T 400       6.094   2.530  -9.875  1.00 54.83     0.154 A 
HETATM    4  C1    D T 400       6.357   2.428 -11.239  1.00 54.43     0.041 A 
HETATM    5  O17   D T 400       5.410   3.580  -9.354  1.00 54.30    -0.188 OA
HETATM    6  C2    D T 400       7.054   1.320 -11.712  1.00 50.51     0.060 A 
HETATM    7  C3    D T 400       7.491   0.325 -10.847  1.00 52.10     0.014 A 
HETATM    8 CL14   D T 400       7.404   1.154 -13.447  1.00 49.50    -0.082 Cl
HETATM    9  C4    D T 400       7.241   0.445  -9.489  1.00 57.51     0.028 A 
ENDBRANCH   1   2
BRANCH   1  10
HETATM   10  C8    D T 400       7.298   1.645  -6.773  1.00 59.17     0.111 A 
HETATM   11  C9    D T 400       7.255   0.659  -5.819  1.00 58.03     0.081 A 
HETATM   12  C10   D T 400       8.236   0.561  -4.861  1.00 63.10     0.025 A 
HETATM   13 CL16   D T 400       5.904  -0.513  -5.821  1.00 86.42    -0.080 Cl
HETATM   14  C11   D T 400       9.268   1.477  -4.873  1.00 63.97     0.059 A 
HETATM   15  C12   D T 400       9.325   2.486  -5.835  1.00 65.40     0.013 A 
HETATM   16 CL15   D T 400      10.517   1.313  -3.608  1.00 74.53    -0.082 Cl
HETATM   17  C13   D T 400       8.325   2.582  -6.797  1.00 59.83     0.026 A 
ENDBRANCH   1  10
TORSDOF 2
ENDMDL
MODEL 5
REMARK VINA RESULT:    -7.551      9.456     11.943
REMARK INTER + INTRA:          -8.686
REMARK INTER:                  -8.143
REMARK INTRA:                  -0.544
REMARK UNBOUND:                -0.252
REMARK  2 active torsions:
REMARK  status: ('A' for Active; 'I' for Inactive)
REMARK    1  A    between atoms: C5_4  and  O7_13 
REMARK    2  A    between atoms: C8_10  and  O7_13 
ROOT
HETATM    1  O7    D T 400       7.610   5.853   2.752  1.00 63.04    -0.304 OA
ENDROOT
BRANCH   1   2
HETATM    2  C5    D T 400       7.705   4.662   3.411  1.00 59.76     0.125 A 
HETATM    3  C6    D T 400       8.938   4.057   3.525  1.00 54.83     0.154 A 
HETATM    4  C1    D T 400       9.060   2.856   4.219  1.00 54.43     0.041 A 
HETATM    5  O17   D T 400      10.005   4.660   2.941  1.00 54.30    -0.188 OA
HETATM    6  C2    D T 400       7.926   2.284   4.785  1.00 50.51     0.060 A 
HETATM    7  C3    D T 400       6.683   2.893   4.672  1.00 52.10     0.014 A 
HETATM    8 CL14   D T 400       8.044   0.749   5.675  1.00 49.50    -0.082 Cl
HETATM    9  C4    D T 400       6.574   4.098   3.996  1.00 57.51     0.028 A 
ENDBRANCH   1   2
BRANCH   1  10
HETATM   10  C8    D T 400       6.909   5.962   1.589  1.00 59.17     0.111 A 
HETATM   11  C9    D T 400       5.772   6.729   1.615  1.00 58.03     0.081 A 
HETATM   12  C10   D T 400       5.003   6.887   0.486  1.00 63.10     0.025 A 
HETATM   13 CL16   D T 400       5.284   7.535   3.135  1.00 86.42    -0.080 Cl
HETATM   14  C11   D T 400       5.393   6.255  -0.677  1.00 63.97     0.059 A 
HETATM   15  C12   D T 400       6.545   5.470  -0.717  1.00 65.40     0.013 A 
HETATM   16 CL15   D T 400       4.361   6.485  -2.115  1.00 74.53    -0.082 Cl
HETATM   17  C13   D T 400       7.315   5.310   0.430  1.00 59.83     0.026 A 
ENDBRANCH   1  10
TORSDOF 2
ENDMDL
MODEL 6
REMARK VINA RESULT:    -7.495      9.567     11.965
REMARK INTER + INTRA:          -8.623
REMARK INTER:                  -8.093
REMARK INTRA:                  -0.530
REMARK UNBOUND:                -0.252
REMARK  2 active torsions:
REMARK  status: ('A' for Active; 'I' for Inactive)
REMARK    1  A    between atoms: C5_4  and  O7_13 
REMARK    2  A    between atoms: C8_10  and  O7_13 
ROOT
HETATM    1  O7    D T 400       6.338   5.711   3.269  1.00 63.04    -0.304 OA
ENDROOT
BRANCH   1   2
HETATM    2  C5    D T 400       6.945   4.600   3.779  1.00 59.76     0.125 A 
HETATM    3  C6    D T 400       6.215   3.748   4.579  1.00 54.83     0.154 A 
HETATM    4  C1    D T 400       6.807   2.594   5.086  1.00 54.43     0.041 A 
HETATM    5  O17   D T 400       4.925   4.072   4.854  1.00 54.30    -0.188 OA
HETATM    6  C2    D T 400       8.136   2.324   4.775  1.00 50.51     0.060 A 
HETATM    7  C3    D T 400       8.872   3.182   3.968  1.00 52.10     0.014 A 
HETATM    8 CL14   D T 400       8.927   0.863   5.408  1.00 49.50    -0.082 Cl
HETATM    9  C4    D T 400       8.268   4.318   3.453  1.00 57.51     0.028 A 
ENDBRANCH   1   2
BRANCH   1  10
HETATM   10  C8    D T 400       6.086   5.828   1.936  1.00 59.17     0.111 A 
HETATM   11  C9    D T 400       6.596   6.931   1.297  1.00 58.03     0.081 A 
HETATM   12  C10   D T 400       6.383   7.128  -0.046  1.00 63.10     0.025 A 
HETATM   13 CL16   D T 400       7.550   8.125   2.225  1.00 86.42    -0.080 Cl
HETATM   14  C11   D T 400       5.641   6.197  -0.745  1.00 63.97     0.059 A 
HETATM   15  C12   D T 400       5.115   5.073  -0.109  1.00 65.40     0.013 A 
HETATM   16 CL15   D T 400       5.387   6.498  -2.486  1.00 74.53    -0.082 Cl
HETATM   17  C13   D T 400       5.329   4.882   1.252  1.00 59.83     0.026 A 
ENDBRANCH   1  10
TORSDOF 2
ENDMDL
MODEL 7
REMARK VINA RESULT:    -7.060      4.231      4.842
REMARK INTER + INTRA:          -8.137
REMARK INTER:                  -7.919
REMARK INTRA:                  -0.218
REMARK UNBOUND:                -0.252
REMARK  2 active torsions:
REMARK  status: ('A' for Active; 'I' for Inactive)
REMARK    1  A    between atoms: C5_4  and  O7_13 
REMARK    2  A    between atoms: C8_10  and  O7_13 
ROOT
HETATM    1  O7    D T 400       7.351   0.951  -6.033  1.00 63.04    -0.304 OA
ENDROOT
BRANCH   1   2
HETATM    2  C5    D T 400       8.570   1.076  -5.432  1.00 59.76     0.125 A 
HETATM    3  C6    D T 400       8.669   1.807  -4.269  1.00 54.83     0.154 A 
HETATM    4  C1    D T 400       9.898   1.923  -3.624  1.00 54.43     0.041 A 
HETATM    5  O17   D T 400       7.548   2.404  -3.788  1.00 54.30    -0.188 OA
HETATM    6  C2    D T 400      11.011   1.296  -4.174  1.00 50.51     0.060 A 
HETATM    7  C3    D T 400      10.912   0.558  -5.346  1.00 52.10     0.014 A 
HETATM    8 CL14   D T 400      12.598   1.425  -3.381  1.00 49.50    -0.082 Cl
HETATM    9  C4    D T 400       9.681   0.433  -5.970  1.00 57.51     0.028 A 
ENDBRANCH   1   2
BRANCH   1  10
HETATM   10  C8    D T 400       7.215   1.068  -7.383  1.00 59.17     0.111 A 
HETATM   11  C9    D T 400       6.385   0.171  -8.008  1.00 58.03     0.081 A 
HETATM   12  C10   D T 400       6.196   0.215  -9.369  1.00 63.10     0.025 A 
HETATM   13 CL16   D T 400       5.539  -1.072  -7.040  1.00 86.42    -0.080 Cl
HETATM   14  C11   D T 400       6.861   1.178 -10.100  1.00 63.97     0.059 A 
HETATM   15  C12   D T 400       7.709   2.095  -9.480  1.00 65.40     0.013 A 
HETATM   16 CL15   D T 400       6.588   1.194 -11.864  1.00 74.53    -0.082 Cl
HETATM   17  C13   D T 400       7.900   2.041  -8.103  1.00 59.83     0.026 A 
ENDBRANCH   1  10
TORSDOF 2
ENDMDL
MODEL 8
REMARK VINA RESULT:    -7.042      9.039     11.923
REMARK INTER + INTRA:          -8.117
REMARK INTER:                  -7.645
REMARK INTRA:                  -0.472
REMARK UNBOUND:                -0.252
REMARK  2 active torsions:
REMARK  status: ('A' for Active; 'I' for Inactive)
REMARK    1  A    between atoms: C5_4  and  O7_13 
REMARK    2  A    between atoms: C8_10  and  O7_13 
ROOT
HETATM    1  O7    D T 400       7.829   6.184   1.494  1.00 63.04    -0.304 OA
ENDROOT
BRANCH   1   2
HETATM    2  C5    D T 400       6.813   6.094   0.587  1.00 59.76     0.125 A 
HETATM    3  C6    D T 400       5.783   7.006   0.646  1.00 54.83     0.154 A 
HETATM    4  C1    D T 400       4.751   6.949  -0.288  1.00 54.43     0.041 A 
HETATM    5  O17   D T 400       5.806   7.939   1.632  1.00 54.30    -0.188 OA
HETATM    6  C2    D T 400       4.780   5.961  -1.267  1.00 50.51     0.060 A 
HETATM    7  C3    D T 400       5.819   5.042  -1.328  1.00 52.10     0.014 A 
HETATM    8 CL14   D T 400       3.478   5.855  -2.473  1.00 49.50    -0.082 Cl
HETATM    9  C4    D T 400       6.851   5.119  -0.406  1.00 57.51     0.028 A 
ENDBRANCH   1   2
BRANCH   1  10
HETATM   10  C8    D T 400       7.977   5.260   2.483  1.00 59.17     0.111 A 
HETATM   11  C9    D T 400       9.240   4.766   2.694  1.00 58.03     0.081 A 
HETATM   12  C10   D T 400       9.476   3.825   3.668  1.00 63.10     0.025 A 
HETATM   13 CL16   D T 400      10.597   5.354   1.689  1.00 86.42    -0.080 Cl
HETATM   14  C11   D T 400       8.415   3.381   4.432  1.00 63.97     0.059 A 
HETATM   15  C12   D T 400       7.126   3.872   4.228  1.00 65.40     0.013 A 
HETATM   16 CL15   D T 400       8.768   2.156   5.681  1.00 74.53    -0.082 Cl
HETATM   17  C13   D T 400       6.894   4.819   3.236  1.00 59.83     0.026 A 
ENDBRANCH   1  10
TORSDOF 2
ENDMDL
MODEL 9
REMARK VINA RESULT:    -6.937      1.984      6.162
REMARK INTER + INTRA:          -8.000
REMARK INTER:                  -7.475
REMARK INTRA:                  -0.525
REMARK UNBOUND:                -0.252
REMARK  2 active torsions:
REMARK  status: ('A' for Active; 'I' for Inactive)
REMARK    1  A    between atoms: C5_4  and  O7_13 
REMARK    2  A    between atoms: C8_10  and  O7_13 
ROOT
HETATM    1  O7    D T 400       5.858   0.819  -5.631  1.00 63.04    -0.304 OA
ENDROOT
BRANCH   1   2
HETATM    2  C5    D T 400       6.328   0.818  -6.913  1.00 59.76     0.125 A 
HETATM    3  C6    D T 400       5.840  -0.113  -7.803  1.00 54.83     0.154 A 
HETATM    4  C1    D T 400       6.286  -0.113  -9.122  1.00 54.43     0.041 A 
HETATM    5  O17   D T 400       4.932  -1.017  -7.353  1.00 54.30    -0.188 OA
HETATM    6  C2    D T 400       7.226   0.833  -9.518  1.00 50.51     0.060 A 
HETATM    7  C3    D T 400       7.718   1.773  -8.622  1.00 52.10     0.014 A 
HETATM    8 CL14   D T 400       7.821   0.861 -11.193  1.00 49.50    -0.082 Cl
HETATM    9  C4    D T 400       7.254   1.777  -7.316  1.00 57.51     0.028 A 
ENDBRANCH   1   2
BRANCH   1  10
HETATM   10  C8    D T 400       5.100   1.847  -5.159  1.00 59.17     0.111 A 
HETATM   11  C9    D T 400       5.680   2.679  -4.234  1.00 58.03     0.081 A 
HETATM   12  C10   D T 400       4.983   3.737  -3.702  1.00 63.10     0.025 A 
HETATM   13 CL16   D T 400       7.365   2.382  -3.715  1.00 86.42    -0.080 Cl
HETATM   14  C11   D T 400       3.682   3.948  -4.112  1.00 63.97     0.059 A 
HETATM   15  C12   D T 400       3.078   3.110  -5.050  1.00 65.40     0.013 A 
HETATM   16 CL15   D T 400       2.815   5.331  -3.391  1.00 74.53    -0.082 Cl
HETATM   17  C13   D T 400       3.788   2.038  -5.580  1.00 59.83     0.026 A 
ENDBRANCH   1  10
TORSDOF 2
ENDMDL
