MODEL 1
REMARK VINA RESULT:    -8.664      0.000      0.000
REMARK INTER + INTRA:         -10.197
REMARK INTER:                  -9.677
REMARK INTRA:                  -0.519
REMARK UNBOUND:                -0.519
REMARK  2 active torsions:
REMARK  status: ('A' for Active; 'I' for Inactive)
REMARK    1  A    between atoms: C22_10  and  C19_16 
REMARK    2  A    between atoms: C12_12  and  C18_15 
ROOT
HETATM    1  C5    D T9000      -0.876  13.681   0.475  1.00 15.43     0.031 A 
HETATM    2  C6    D T9000       0.055  13.364  -0.553  1.00 14.10     0.021 A 
HETATM    3  C7    D T9000       0.859  13.359   2.224  1.00 15.14     0.031 A 
HETATM    4  C15   D T9000      -0.471  13.677   1.842  1.00 15.55     0.140 A 
HETATM    5  C17   D T9000       1.787  13.041   1.193  1.00 14.45     0.025 A 
HETATM    6  C20   D T9000       3.225  12.662   1.174  1.00 13.45     0.061 A 
HETATM    7  C21   D T9000       3.591  12.458  -0.280  1.00 13.66     0.279 A 
HETATM    8  C12   D T9000       3.943  12.553   2.315  1.00 15.97     0.024 C 
HETATM    9  C16   D T9000       1.368  13.051  -0.165  1.00 12.00     0.085 A 
HETATM   10  N24   D T9000       2.427  12.711  -1.005  1.00 11.43    -0.208 NA
HETATM   11  O27   D T9000       4.673  12.139  -0.730  1.00 15.23    -0.265 OA
HETATM   12  F29   D T9000      -1.372  13.984   2.789  1.00 17.21    -0.204 F 
ENDROOT
BRANCH   8  13
HETATM   13  C18   D T9000       5.306  12.190   2.570  1.00 15.83     0.077 A 
HETATM   14  C13   D T9000       5.832  11.161   3.356  1.00 17.58     0.001 A 
HETATM   15  C3    D T9000       5.039  10.166   4.150  1.00 18.30     0.033 C 
HETATM   16  C19   D T9000       7.278  11.221   3.263  1.00 17.94     0.064 A 
HETATM   17  C14   D T9000       7.571  12.288   2.426  1.00 17.03     0.063 A 
HETATM   18  C4    D T9000       8.853  12.864   1.936  1.00 17.32     0.052 C 
HETATM   19  N23   D T9000       6.382  12.852   2.028  1.00 14.09    -0.250 NA
BRANCH  16  20
HETATM   20  C22   D T9000       8.243  10.320   3.927  1.00 21.63     0.267 C 
HETATM   21  N25   D T9000       8.550   9.165   3.229  1.00 24.57    -0.057 NA
HETATM   22  O28   D T9000       8.726  10.595   5.029  1.00 26.27    -0.271 OA
ENDBRANCH  16  20
ENDBRANCH   8  13
TORSDOF 2
ENDMDL
MODEL 2
REMARK VINA RESULT:    -8.331      1.294      2.006
REMARK INTER + INTRA:          -9.825
REMARK INTER:                  -9.335
REMARK INTRA:                  -0.490
REMARK UNBOUND:                -0.519
REMARK  2 active torsions:
REMARK  status: ('A' for Active; 'I' for Inactive)
REMARK    1  A    between atoms: C22_10  and  C19_16 
REMARK    2  A    between atoms: C12_12  and  C18_15 
ROOT
HETATM    1  C5    D T9000      -0.366  13.526   0.247  1.00 15.43     0.031 A 
HETATM    2  C6    D T9000       0.626  13.216  -0.724  1.00 14.10     0.021 A 
HETATM    3  C7    D T9000       1.271  13.238   2.094  1.00 15.14     0.031 A 
HETATM    4  C15   D T9000      -0.040  13.535   1.635  1.00 15.55     0.140 A 
HETATM    5  C17   D T9000       2.259  12.927   1.119  1.00 14.45     0.025 A 
HETATM    6  C20   D T9000       3.701  12.567   1.184  1.00 13.45     0.061 A 
HETATM    7  C21   D T9000       4.152  12.360  -0.247  1.00 13.66     0.279 A 
HETATM    8  C12   D T9000       4.355  12.475   2.364  1.00 15.97     0.024 C 
HETATM    9  C16   D T9000       1.919  12.923  -0.261  1.00 12.00     0.085 A 
HETATM   10  N24   D T9000       3.027  12.593  -1.037  1.00 11.43    -0.208 NA
HETATM   11  O27   D T9000       5.262  12.054  -0.632  1.00 15.23    -0.265 OA
HETATM   12  F29   D T9000      -0.997  13.834   2.527  1.00 17.21    -0.204 F 
ENDROOT
BRANCH   8  13
HETATM   13  C18   D T9000       5.707  12.132   2.697  1.00 15.83     0.077 A 
HETATM   14  C13   D T9000       6.902  12.793   2.400  1.00 17.58     0.001 A 
HETATM   15  C3    D T9000       7.035  14.068   1.623  1.00 18.30     0.033 C 
HETATM   16  C19   D T9000       7.990  12.032   2.984  1.00 17.94     0.064 A 
HETATM   17  C14   D T9000       7.410  10.937   3.608  1.00 17.03     0.063 A 
HETATM   18  C4    D T9000       7.977   9.796   4.378  1.00 17.32     0.052 C 
HETATM   19  N23   D T9000       6.050  11.016   3.421  1.00 14.09    -0.250 NA
BRANCH  16  20
HETATM   20  C22   D T9000       9.430  12.363   2.926  1.00 21.63     0.267 C 
HETATM   21  N25   D T9000       9.973  12.415   1.654  1.00 24.57    -0.057 NA
HETATM   22  O28   D T9000      10.083  12.569   3.952  1.00 26.27    -0.271 OA
ENDBRANCH  16  20
ENDBRANCH   8  13
TORSDOF 2
ENDMDL
MODEL 3
REMARK VINA RESULT:    -8.293      3.604      6.656
REMARK INTER + INTRA:          -9.782
REMARK INTER:                  -9.140
REMARK INTRA:                  -0.642
REMARK UNBOUND:                -0.519
REMARK  2 active torsions:
REMARK  status: ('A' for Active; 'I' for Inactive)
REMARK    1  A    between atoms: C22_10  and  C19_16 
REMARK    2  A    between atoms: C12_12  and  C18_15 
ROOT
HETATM    1  C5    D T9000       3.465  10.136   3.708  1.00 15.43     0.031 A 
HETATM    2  C6    D T9000       4.595  11.000   3.726  1.00 14.10     0.021 A 
HETATM    3  C7    D T9000       2.603  11.214   1.641  1.00 15.14     0.031 A 
HETATM    4  C15   D T9000       2.487  10.249   2.676  1.00 15.55     0.140 A 
HETATM    5  C17   D T9000       3.734  12.077   1.664  1.00 14.45     0.025 A 
HETATM    6  C20   D T9000       4.209  13.187   0.796  1.00 13.45     0.061 A 
HETATM    7  C21   D T9000       5.503  13.681   1.405  1.00 13.66     0.279 A 
HETATM    8  C12   D T9000       3.512  13.578  -0.296  1.00 15.97     0.024 C 
HETATM    9  C16   D T9000       4.701  11.952   2.699  1.00 12.00     0.085 A 
HETATM   10  N24   D T9000       5.719  12.889   2.533  1.00 11.43    -0.208 NA
HETATM   11  O27   D T9000       6.212  14.580   1.002  1.00 15.23    -0.265 OA
HETATM   12  F29   D T9000       1.433   9.417   2.684  1.00 17.21    -0.204 F 
ENDROOT
BRANCH   8  13
HETATM   13  C18   D T9000       3.733  14.611  -1.266  1.00 15.83     0.077 A 
HETATM   14  C13   D T9000       4.744  14.748  -2.221  1.00 17.58     0.001 A 
HETATM   15  C3    D T9000       5.881  13.795  -2.443  1.00 18.30     0.033 C 
HETATM   16  C19   D T9000       4.497  15.969  -2.963  1.00 17.94     0.064 A 
HETATM   17  C14   D T9000       3.346  16.526  -2.424  1.00 17.03     0.063 A 
HETATM   18  C4    D T9000       2.578  17.762  -2.741  1.00 17.32     0.052 C 
HETATM   19  N23   D T9000       2.910  15.702  -1.413  1.00 14.09    -0.250 NA
BRANCH  16  20
HETATM   20  C22   D T9000       5.310  16.508  -4.073  1.00 21.63     0.267 C 
HETATM   21  N25   D T9000       6.282  17.421  -3.705  1.00 24.57    -0.057 NA
HETATM   22  O28   D T9000       5.115  16.158  -5.241  1.00 26.27    -0.271 OA
ENDBRANCH  16  20
ENDBRANCH   8  13
TORSDOF 2
ENDMDL
MODEL 4
REMARK VINA RESULT:    -8.069      3.206      7.411
REMARK INTER + INTRA:          -9.531
REMARK INTER:                  -9.029
REMARK INTRA:                  -0.502
REMARK UNBOUND:                -0.519
REMARK  2 active torsions:
REMARK  status: ('A' for Active; 'I' for Inactive)
REMARK    1  A    between atoms: C22_10  and  C19_16 
REMARK    2  A    between atoms: C12_12  and  C18_15 
ROOT
HETATM    1  C5    D T9000       9.707  11.046   4.011  1.00 15.43     0.031 A 
HETATM    2  C6    D T9000       9.593  12.177   3.155  1.00 14.10     0.021 A 
HETATM    3  C7    D T9000       7.262  10.624   3.872  1.00 15.14     0.031 A 
HETATM    4  C15   D T9000       8.552  10.285   4.360  1.00 15.55     0.140 A 
HETATM    5  C17   D T9000       7.153  11.756   3.017  1.00 14.45     0.025 A 
HETATM    6  C20   D T9000       6.020  12.422   2.321  1.00 13.45     0.061 A 
HETATM    7  C21   D T9000       6.615  13.593   1.568  1.00 13.66     0.279 A 
HETATM    8  C12   D T9000       4.752  11.964   2.432  1.00 15.97     0.024 C 
HETATM    9  C16   D T9000       8.313  12.504   2.678  1.00 12.00     0.085 A 
HETATM   10  N24   D T9000       7.983  13.564   1.837  1.00 11.43    -0.208 NA
HETATM   11  O27   D T9000       6.028  14.396   0.872  1.00 15.23    -0.265 OA
HETATM   12  F29   D T9000       8.692   9.223   5.168  1.00 17.21    -0.204 F 
ENDROOT
BRANCH   8  13
HETATM   13  C18   D T9000       3.506  12.426   1.895  1.00 15.83     0.077 A 
HETATM   14  C13   D T9000       3.102  12.582   0.566  1.00 17.58     0.001 A 
HETATM   15  C3    D T9000       3.932  12.289  -0.648  1.00 18.30     0.033 C 
HETATM   16  C19   D T9000       1.735  13.068   0.568  1.00 17.94     0.064 A 
HETATM   17  C14   D T9000       1.368  13.192   1.901  1.00 17.03     0.063 A 
HETATM   18  C4    D T9000       0.111  13.634   2.565  1.00 17.32     0.052 C 
HETATM   19  N23   D T9000       2.439  12.807   2.672  1.00 14.09    -0.250 NA
BRANCH  16  20
HETATM   20  C22   D T9000       0.903  13.368  -0.615  1.00 21.63     0.267 C 
HETATM   21  N25   D T9000       1.242  14.522  -1.300  1.00 24.57    -0.057 NA
HETATM   22  O28   D T9000      -0.029  12.630  -0.949  1.00 26.27    -0.271 OA
ENDBRANCH  16  20
ENDBRANCH   8  13
TORSDOF 2
ENDMDL
MODEL 5
REMARK VINA RESULT:    -7.889      4.004      6.743
REMARK INTER + INTRA:          -9.331
REMARK INTER:                  -8.788
REMARK INTRA:                  -0.543
REMARK UNBOUND:                -0.519
REMARK  2 active torsions:
REMARK  status: ('A' for Active; 'I' for Inactive)
REMARK    1  A    between atoms: C22_10  and  C19_16 
REMARK    2  A    between atoms: C12_12  and  C18_15 
ROOT
HETATM    1  C5    D T9000       3.463  10.406   3.493  1.00 15.43     0.031 A 
HETATM    2  C6    D T9000       2.389  10.555   2.573  1.00 14.10     0.021 A 
HETATM    3  C7    D T9000       4.789  12.145   2.312  1.00 15.14     0.031 A 
HETATM    4  C15   D T9000       4.644  11.194   3.357  1.00 15.55     0.140 A 
HETATM    5  C17   D T9000       3.712  12.289   1.393  1.00 14.45     0.025 A 
HETATM    6  C20   D T9000       3.478  13.142   0.198  1.00 13.45     0.061 A 
HETATM    7  C21   D T9000       2.101  12.780  -0.319  1.00 13.66     0.279 A 
HETATM    8  C12   D T9000       4.407  14.024  -0.236  1.00 15.97     0.024 C 
HETATM    9  C16   D T9000       2.541  11.497   1.542  1.00 12.00     0.085 A 
HETATM   10  N24   D T9000       1.619  11.795   0.542  1.00 11.43    -0.208 NA
HETATM   11  O27   D T9000       1.530  13.247  -1.283  1.00 15.23    -0.265 OA
HETATM   12  F29   D T9000       5.640  11.033   4.243  1.00 17.21    -0.204 F 
ENDROOT
BRANCH   8  13
HETATM   13  C18   D T9000       4.438  14.928  -1.348  1.00 15.83     0.077 A 
HETATM   14  C13   D T9000       5.301  14.972  -2.447  1.00 17.58     0.001 A 
HETATM   15  C3    D T9000       6.442  14.035  -2.710  1.00 18.30     0.033 C 
HETATM   16  C19   D T9000       4.892  16.077  -3.293  1.00 17.94     0.064 A 
HETATM   17  C14   D T9000       3.799  16.662  -2.668  1.00 17.03     0.063 A 
HETATM   18  C4    D T9000       2.934  17.820  -3.023  1.00 17.32     0.052 C 
HETATM   19  N23   D T9000       3.550  15.963  -1.511  1.00 14.09    -0.250 NA
BRANCH  16  20
HETATM   20  C22   D T9000       5.515  16.492  -4.567  1.00 21.63     0.267 C 
HETATM   21  N25   D T9000       6.379  17.569  -4.479  1.00 24.57    -0.057 NA
HETATM   22  O28   D T9000       5.264  15.908  -5.625  1.00 26.27    -0.271 OA
ENDBRANCH  16  20
ENDBRANCH   8  13
TORSDOF 2
ENDMDL
MODEL 6
REMARK VINA RESULT:    -7.516      2.853      3.876
REMARK INTER + INTRA:          -8.914
REMARK INTER:                  -8.287
REMARK INTRA:                  -0.627
REMARK UNBOUND:                -0.519
REMARK  2 active torsions:
REMARK  status: ('A' for Active; 'I' for Inactive)
REMARK    1  A    between atoms: C22_10  and  C19_16 
REMARK    2  A    between atoms: C12_12  and  C18_15 
ROOT
HETATM    1  C5    D T9000       2.801  13.316  -0.499  1.00 15.43     0.031 A 
HETATM    2  C6    D T9000       2.575  12.676   0.751  1.00 14.10     0.021 A 
HETATM    3  C7    D T9000       5.262  13.164  -0.196  1.00 15.14     0.031 A 
HETATM    4  C15   D T9000       4.130  13.553  -0.959  1.00 15.55     0.140 A 
HETATM    5  C17   D T9000       5.032  12.525   1.054  1.00 14.45     0.025 A 
HETATM    6  C20   D T9000       5.917  11.985   2.121  1.00 13.45     0.061 A 
HETATM    7  C21   D T9000       5.002  11.436   3.195  1.00 13.66     0.279 A 
HETATM    8  C12   D T9000       7.264  12.045   2.020  1.00 15.97     0.024 C 
HETATM    9  C16   D T9000       3.701  12.295   1.499  1.00 12.00     0.085 A 
HETATM   10  N24   D T9000       3.703  11.663   2.740  1.00 11.43    -0.208 NA
HETATM   11  O27   D T9000       5.325  10.908   4.238  1.00 15.23    -0.265 OA
HETATM   12  F29   D T9000       4.310  14.157  -2.144  1.00 17.21    -0.204 F 
ENDROOT
BRANCH   8  13
HETATM   13  C18   D T9000       8.320  11.628   2.896  1.00 15.83     0.077 A 
HETATM   14  C13   D T9000       8.702  10.345   3.297  1.00 17.58     0.001 A 
HETATM   15  C3    D T9000       8.052   9.060   2.878  1.00 18.30     0.033 C 
HETATM   16  C19   D T9000       9.844  10.474   4.182  1.00 17.94     0.064 A 
HETATM   17  C14   D T9000      10.104  11.834   4.286  1.00 17.03     0.063 A 
HETATM   18  C4    D T9000      11.132  12.611   5.031  1.00 17.32     0.052 C 
HETATM   19  N23   D T9000       9.182  12.501   3.514  1.00 14.09    -0.250 NA
BRANCH  16  20
HETATM   20  C22   D T9000      10.582   9.375   4.838  1.00 21.63     0.267 C 
HETATM   21  N25   D T9000      11.833   9.106   4.312  1.00 24.57    -0.057 NA
HETATM   22  O28   D T9000      10.094   8.750   5.785  1.00 26.27    -0.271 OA
ENDBRANCH  16  20
ENDBRANCH   8  13
TORSDOF 2
ENDMDL
MODEL 7
REMARK VINA RESULT:    -7.497      3.704      7.776
REMARK INTER + INTRA:          -8.893
REMARK INTER:                  -8.624
REMARK INTRA:                  -0.270
REMARK UNBOUND:                -0.519
REMARK  2 active torsions:
REMARK  status: ('A' for Active; 'I' for Inactive)
REMARK    1  A    between atoms: C22_10  and  C19_16 
REMARK    2  A    between atoms: C12_12  and  C18_15 
ROOT
HETATM    1  C5    D T9000       9.691  10.090   3.844  1.00 15.43     0.031 A 
HETATM    2  C6    D T9000       8.391  10.182   4.414  1.00 14.10     0.021 A 
HETATM    3  C7    D T9000       8.949  11.315   1.813  1.00 15.14     0.031 A 
HETATM    4  C15   D T9000       9.958  10.651   2.560  1.00 15.55     0.140 A 
HETATM    5  C17   D T9000       7.650  11.404   2.387  1.00 14.45     0.025 A 
HETATM    6  C20   D T9000       6.360  11.994   1.942  1.00 13.45     0.061 A 
HETATM    7  C21   D T9000       5.365  11.727   3.052  1.00 13.66     0.279 A 
HETATM    8  C12   D T9000       6.240  12.616   0.747  1.00 15.97     0.024 C 
HETATM    9  C16   D T9000       7.400  10.840   3.668  1.00 12.00     0.085 A 
HETATM   10  N24   D T9000       6.072  11.037   4.037  1.00 11.43    -0.208 NA
HETATM   11  O27   D T9000       4.194  12.045   3.085  1.00 15.23    -0.265 OA
HETATM   12  F29   D T9000      11.196  10.550   2.050  1.00 17.21    -0.204 F 
ENDROOT
BRANCH   8  13
HETATM   13  C18   D T9000       5.130  13.236   0.085  1.00 15.83     0.077 A 
HETATM   14  C13   D T9000       5.011  14.515  -0.466  1.00 17.58     0.001 A 
HETATM   15  C3    D T9000       6.075  15.572  -0.478  1.00 18.30     0.033 C 
HETATM   16  C19   D T9000       3.681  14.637  -1.030  1.00 17.94     0.064 A 
HETATM   17  C14   D T9000       3.044  13.427  -0.793  1.00 17.03     0.063 A 
HETATM   18  C4    D T9000       1.683  12.920  -1.121  1.00 17.32     0.052 C 
HETATM   19  N23   D T9000       3.926  12.610  -0.126  1.00 14.09    -0.250 NA
BRANCH  16  20
HETATM   20  C22   D T9000       3.119  15.817  -1.721  1.00 21.63     0.267 C 
HETATM   21  N25   D T9000       3.855  16.277  -2.799  1.00 24.57    -0.057 NA
HETATM   22  O28   D T9000       2.068  16.342  -1.343  1.00 26.27    -0.271 OA
ENDBRANCH  16  20
ENDBRANCH   8  13
TORSDOF 2
ENDMDL
MODEL 8
REMARK VINA RESULT:    -7.434      4.618      7.106
REMARK INTER + INTRA:          -8.822
REMARK INTER:                  -8.188
REMARK INTRA:                  -0.634
REMARK UNBOUND:                -0.519
REMARK  2 active torsions:
REMARK  status: ('A' for Active; 'I' for Inactive)
REMARK    1  A    between atoms: C22_10  and  C19_16 
REMARK    2  A    between atoms: C12_12  and  C18_15 
ROOT
HETATM    1  C5    D T9000       4.363  11.433   3.338  1.00 15.43     0.031 A 
HETATM    2  C6    D T9000       3.277  11.823   2.506  1.00 14.10     0.021 A 
HETATM    3  C7    D T9000       6.001  12.472   1.784  1.00 15.14     0.031 A 
HETATM    4  C15   D T9000       5.704  11.757   2.975  1.00 15.55     0.140 A 
HETATM    5  C17   D T9000       4.911  12.858   0.954  1.00 14.45     0.025 A 
HETATM    6  C20   D T9000       4.801  13.590  -0.336  1.00 13.45     0.061 A 
HETATM    7  C21   D T9000       3.324  13.653  -0.663  1.00 13.66     0.279 A 
HETATM    8  C12   D T9000       5.895  14.052  -0.984  1.00 15.97     0.024 C 
HETATM    9  C16   D T9000       3.581  12.529   1.330  1.00 12.00     0.085 A 
HETATM   10  N24   D T9000       2.675  12.997   0.382  1.00 11.43    -0.208 NA
HETATM   11  O27   D T9000       2.806  14.165  -1.634  1.00 15.23    -0.265 OA
HETATM   12  F29   D T9000       6.707  11.378   3.782  1.00 17.21    -0.204 F 
ENDROOT
BRANCH   8  13
HETATM   13  C18   D T9000       6.061  14.752  -2.223  1.00 15.83     0.077 A 
HETATM   14  C13   D T9000       5.797  16.086  -2.546  1.00 17.58     0.001 A 
HETATM   15  C3    D T9000       5.248  17.126  -1.614  1.00 18.30     0.033 C 
HETATM   16  C19   D T9000       6.156  16.290  -3.936  1.00 17.94     0.064 A 
HETATM   17  C14   D T9000       6.618  15.068  -4.403  1.00 17.03     0.063 A 
HETATM   18  C4    D T9000       7.132  14.621  -5.727  1.00 17.32     0.052 C 
HETATM   19  N23   D T9000       6.550  14.167  -3.366  1.00 14.09    -0.250 NA
BRANCH  16  20
HETATM   20  C22   D T9000       6.050  17.551  -4.699  1.00 21.63     0.267 C 
HETATM   21  N25   D T9000       4.784  17.855  -5.168  1.00 24.57    -0.057 NA
HETATM   22  O28   D T9000       7.037  18.266  -4.899  1.00 26.27    -0.271 OA
ENDBRANCH  16  20
ENDBRANCH   8  13
TORSDOF 2
ENDMDL
MODEL 9
REMARK VINA RESULT:    -7.414      4.472      7.058
REMARK INTER + INTRA:          -8.801
REMARK INTER:                  -8.400
REMARK INTRA:                  -0.401
REMARK UNBOUND:                -0.519
REMARK  2 active torsions:
REMARK  status: ('A' for Active; 'I' for Inactive)
REMARK    1  A    between atoms: C22_10  and  C19_16 
REMARK    2  A    between atoms: C12_12  and  C18_15 
ROOT
HETATM    1  C5    D T9000       1.647  12.162   2.226  1.00 15.43     0.031 A 
HETATM    2  C6    D T9000       3.052  11.993   2.079  1.00 14.10     0.021 A 
HETATM    3  C7    D T9000       1.551  13.599   0.201  1.00 15.14     0.031 A 
HETATM    4  C15   D T9000       0.914  12.956   1.295  1.00 15.55     0.140 A 
HETATM    5  C17   D T9000       2.957  13.428   0.059  1.00 14.45     0.025 A 
HETATM    6  C20   D T9000       3.967  13.920  -0.916  1.00 13.45     0.061 A 
HETATM    7  C21   D T9000       5.298  13.353  -0.471  1.00 13.66     0.279 A 
HETATM    8  C12   D T9000       3.621  14.720  -1.951  1.00 15.97     0.024 C 
HETATM    9  C16   D T9000       3.673  12.633   0.994  1.00 12.00     0.085 A 
HETATM   10  N24   D T9000       5.028  12.600   0.671  1.00 11.43    -0.208 NA
HETATM   11  O27   D T9000       6.381  13.517  -0.995  1.00 15.23    -0.265 OA
HETATM   12  F29   D T9000      -0.411  13.094   1.459  1.00 17.21    -0.204 F 
ENDROOT
BRANCH   8  13
HETATM   13  C18   D T9000       4.385  15.336  -2.995  1.00 15.83     0.077 A 
HETATM   14  C13   D T9000       4.428  16.670  -3.412  1.00 17.58     0.001 A 
HETATM   15  C3    D T9000       3.636  17.801  -2.828  1.00 18.30     0.033 C 
HETATM   16  C19   D T9000       5.379  16.768  -4.502  1.00 17.94     0.064 A 
HETATM   17  C14   D T9000       5.871  15.486  -4.706  1.00 17.03     0.063 A 
HETATM   18  C4    D T9000       6.865  14.927  -5.663  1.00 17.32     0.052 C 
HETATM   19  N23   D T9000       5.263  14.651  -3.799  1.00 14.09    -0.250 NA
BRANCH  16  20
HETATM   20  C22   D T9000       5.749  17.991  -5.245  1.00 21.63     0.267 C 
HETATM   21  N25   D T9000       4.765  18.499  -6.074  1.00 24.57    -0.057 NA
HETATM   22  O28   D T9000       6.865  18.503  -5.123  1.00 26.27    -0.271 OA
ENDBRANCH  16  20
ENDBRANCH   8  13
TORSDOF 2
ENDMDL
