MODEL 1
REMARK VINA RESULT:    -7.679      0.000      0.000
REMARK INTER + INTRA:          -9.112
REMARK INTER:                  -8.576
REMARK INTRA:                  -0.536
REMARK UNBOUND:                -0.536
REMARK  2 active torsions:
REMARK  status: ('A' for Active; 'I' for Inactive)
REMARK    1  A    between atoms: C5_4  and  O7_13 
REMARK    2  A    between atoms: C8_10  and  O7_13 
ROOT
HETATM    1  O7    D T 371       6.835   1.046  -6.854  1.00 19.13    -0.304 OA
ENDROOT
BRANCH   1   2
HETATM    2  C5    D T 371       7.081   1.296  -8.179  1.00 24.01     0.125 A 
HETATM    3  C6    D T 371       8.342   1.955  -8.600  1.00 25.08     0.154 A 
HETATM    4  C1    D T 371       8.559   2.193  -9.950  1.00 24.96     0.041 A 
HETATM    5  O17   D T 371       9.273   2.321  -7.676  1.00 32.11    -0.188 OA
HETATM    6  C2    D T 371       7.601   1.815 -10.885  1.00 25.04     0.060 A 
HETATM    7  C3    D T 371       6.417   1.197 -10.488  1.00 27.50     0.014 A 
HETATM    8 CL14   D T 371       7.894   2.128 -12.629  1.00 23.09    -0.082 Cl
HETATM    9  C4    D T 371       6.154   0.936  -9.147  1.00 24.93     0.028 A 
ENDBRANCH   1   2
BRANCH   1  10
HETATM   10  C8    D T 371       5.887   1.775  -6.185  1.00 19.85     0.111 A 
HETATM   11  C9    D T 371       4.599   1.151  -5.787  1.00 17.43     0.081 A 
HETATM   12  C10   D T 371       3.661   1.918  -5.110  1.00 16.58     0.025 A 
HETATM   13 CL16   D T 371       4.262  -0.569  -6.177  1.00 28.15    -0.080 Cl
HETATM   14  C11   D T 371       3.933   3.250  -4.813  1.00 19.66     0.059 A 
HETATM   15  C12   D T 371       5.142   3.833  -5.187  1.00 21.08     0.013 A 
HETATM   16 CL15   D T 371       2.711   4.230  -3.937  1.00 21.08    -0.082 Cl
HETATM   17  C13   D T 371       6.115   3.106  -5.867  1.00 20.62     0.026 A 
ENDBRANCH   1  10
TORSDOF 2
ENDMDL
MODEL 2
REMARK VINA RESULT:    -7.626      1.544      6.162
REMARK INTER + INTRA:          -9.053
REMARK INTER:                  -8.527
REMARK INTRA:                  -0.526
REMARK UNBOUND:                -0.536
REMARK  2 active torsions:
REMARK  status: ('A' for Active; 'I' for Inactive)
REMARK    1  A    between atoms: C5_4  and  O7_13 
REMARK    2  A    between atoms: C8_10  and  O7_13 
ROOT
HETATM    1  O7    D T 371       6.732   0.983  -6.841  1.00 19.13    -0.304 OA
ENDROOT
BRANCH   1   2
HETATM    2  C5    D T 371       5.817   1.750  -6.169  1.00 24.01     0.125 A 
HETATM    3  C6    D T 371       4.533   1.163  -5.711  1.00 25.08     0.154 A 
HETATM    4  C1    D T 371       3.629   1.969  -5.033  1.00 24.96     0.041 A 
HETATM    5  O17   D T 371       4.246  -0.146  -5.953  1.00 32.11    -0.188 OA
HETATM    6  C2    D T 371       3.933   3.305  -4.792  1.00 25.04     0.060 A 
HETATM    7  C3    D T 371       5.139   3.854  -5.223  1.00 27.50     0.014 A 
HETATM    8 CL14   D T 371       2.755   4.337  -3.913  1.00 23.09    -0.082 Cl
HETATM    9  C4    D T 371       6.077   3.087  -5.906  1.00 24.93     0.028 A 
ENDBRANCH   1   2
BRANCH   1  10
HETATM   10  C8    D T 371       7.003   1.239  -8.160  1.00 19.85     0.111 A 
HETATM   11  C9    D T 371       8.267   1.912  -8.552  1.00 17.43     0.081 A 
HETATM   12  C10   D T 371       8.510   2.156  -9.897  1.00 16.58     0.025 A 
HETATM   13 CL16   D T 371       9.462   2.403  -7.305  1.00 28.15    -0.080 Cl
HETATM   14  C11   D T 371       7.577   1.772 -10.854  1.00 19.66     0.059 A 
HETATM   15  C12   D T 371       6.391   1.140 -10.484  1.00 21.08     0.013 A 
HETATM   16 CL15   D T 371       7.903   2.093 -12.589  1.00 21.08    -0.082 Cl
HETATM   17  C13   D T 371       6.102   0.873  -9.149  1.00 20.62     0.026 A 
ENDBRANCH   1  10
TORSDOF 2
ENDMDL
MODEL 3
REMARK VINA RESULT:    -7.514      1.408      6.007
REMARK INTER + INTRA:          -8.929
REMARK INTER:                  -8.576
REMARK INTRA:                  -0.353
REMARK UNBOUND:                -0.536
REMARK  2 active torsions:
REMARK  status: ('A' for Active; 'I' for Inactive)
REMARK    1  A    between atoms: C5_4  and  O7_13 
REMARK    2  A    between atoms: C8_10  and  O7_13 
ROOT
HETATM    1  O7    D T 371       6.018   0.614  -7.423  1.00 19.13    -0.304 OA
ENDROOT
BRANCH   1   2
HETATM    2  C5    D T 371       5.309   1.483  -6.636  1.00 24.01     0.125 A 
HETATM    3  C6    D T 371       4.195   0.994  -5.787  1.00 25.08     0.154 A 
HETATM    4  C1    D T 371       3.497   1.903  -5.002  1.00 24.96     0.041 A 
HETATM    5  O17   D T 371       3.861  -0.326  -5.777  1.00 32.11    -0.188 OA
HETATM    6  C2    D T 371       3.846   3.249  -5.021  1.00 25.04     0.060 A 
HETATM    7  C3    D T 371       4.893   3.707  -5.819  1.00 27.50     0.014 A 
HETATM    8 CL14   D T 371       2.937   4.414  -4.001  1.00 23.09    -0.082 Cl
HETATM    9  C4    D T 371       5.622   2.836  -6.622  1.00 24.93     0.028 A 
ENDBRANCH   1   2
BRANCH   1  10
HETATM   10  C8    D T 371       6.419   0.996  -8.676  1.00 19.85     0.111 A 
HETATM   11  C9    D T 371       5.433   1.103  -9.782  1.00 17.43     0.081 A 
HETATM   12  C10   D T 371       5.873   1.492 -11.040  1.00 16.58     0.025 A 
HETATM   13 CL16   D T 371       3.700   0.732  -9.496  1.00 28.15    -0.080 Cl
HETATM   14  C11   D T 371       7.218   1.777 -11.250  1.00 19.66     0.059 A 
HETATM   15  C12   D T 371       8.141   1.677 -10.211  1.00 21.08     0.013 A 
HETATM   16 CL15   D T 371       7.774   2.280 -12.881  1.00 21.08    -0.082 Cl
HETATM   17  C13   D T 371       7.750   1.291  -8.932  1.00 20.62     0.026 A 
ENDBRANCH   1  10
TORSDOF 2
ENDMDL
MODEL 4
REMARK VINA RESULT:    -7.279      2.323      6.130
REMARK INTER + INTRA:          -8.666
REMARK INTER:                  -8.175
REMARK INTRA:                  -0.491
REMARK UNBOUND:                -0.536
REMARK  2 active torsions:
REMARK  status: ('A' for Active; 'I' for Inactive)
REMARK    1  A    between atoms: C5_4  and  O7_13 
REMARK    2  A    between atoms: C8_10  and  O7_13 
ROOT
HETATM    1  O7    D T 371       6.601   3.580  -6.682  1.00 19.13    -0.304 OA
ENDROOT
BRANCH   1   2
HETATM    2  C5    D T 371       5.864   2.789  -5.840  1.00 24.01     0.125 A 
HETATM    3  C6    D T 371       4.633   3.313  -5.199  1.00 25.08     0.154 A 
HETATM    4  C1    D T 371       3.911   2.484  -4.351  1.00 24.96     0.041 A 
HETATM    5  O17   D T 371       4.218   4.588  -5.438  1.00 32.11    -0.188 OA
HETATM    6  C2    D T 371       4.344   1.184  -4.114  1.00 25.04     0.060 A 
HETATM    7  C3    D T 371       5.500   0.693  -4.717  1.00 27.50     0.014 A 
HETATM    8 CL14   D T 371       3.400   0.122  -3.016  1.00 23.09    -0.082 Cl
HETATM    9  C4    D T 371       6.258   1.485  -5.574  1.00 24.93     0.028 A 
ENDBRANCH   1   2
BRANCH   1  10
HETATM   10  C8    D T 371       6.791   3.202  -7.985  1.00 19.85     0.111 A 
HETATM   11  C9    D T 371       8.080   2.602  -8.415  1.00 17.43     0.081 A 
HETATM   12  C10   D T 371       8.239   2.231  -9.743  1.00 16.58     0.025 A 
HETATM   13 CL16   D T 371       9.412   2.362  -7.235  1.00 28.15    -0.080 Cl
HETATM   14  C11   D T 371       7.201   2.422 -10.649  1.00 19.66     0.059 A 
HETATM   15  C12   D T 371       5.993   2.984 -10.243  1.00 21.08     0.013 A 
HETATM   16 CL15   D T 371       7.420   1.937 -12.363  1.00 21.08    -0.082 Cl
HETATM   17  C13   D T 371       5.784   3.372  -8.923  1.00 20.62     0.026 A 
ENDBRANCH   1  10
TORSDOF 2
ENDMDL
MODEL 5
REMARK VINA RESULT:    -7.206      1.577      2.402
REMARK INTER + INTRA:          -8.584
REMARK INTER:                  -8.119
REMARK INTRA:                  -0.465
REMARK UNBOUND:                -0.536
REMARK  2 active torsions:
REMARK  status: ('A' for Active; 'I' for Inactive)
REMARK    1  A    between atoms: C5_4  and  O7_13 
REMARK    2  A    between atoms: C8_10  and  O7_13 
ROOT
HETATM    1  O7    D T 371       6.534   3.516  -6.593  1.00 19.13    -0.304 OA
ENDROOT
BRANCH   1   2
HETATM    2  C5    D T 371       6.779   3.161  -7.893  1.00 24.01     0.125 A 
HETATM    3  C6    D T 371       8.117   2.662  -8.298  1.00 25.08     0.154 A 
HETATM    4  C1    D T 371       8.330   2.311  -9.624  1.00 24.96     0.041 A 
HETATM    5  O17   D T 371       9.119   2.549  -7.384  1.00 32.11    -0.188 OA
HETATM    6  C2    D T 371       7.300   2.430 -10.550  1.00 25.04     0.060 A 
HETATM    7  C3    D T 371       6.044   2.899 -10.168  1.00 27.50     0.014 A 
HETATM    8 CL14   D T 371       7.589   1.972 -12.263  1.00 23.09    -0.082 Cl
HETATM    9  C4    D T 371       5.781   3.263  -8.851  1.00 24.93     0.028 A 
ENDBRANCH   1   2
BRANCH   1  10
HETATM   10  C8    D T 371       5.827   2.675  -5.775  1.00 19.85     0.111 A 
HETATM   11  C9    D T 371       4.609   3.154  -5.073  1.00 17.43     0.081 A 
HETATM   12  C10   D T 371       3.916   2.276  -4.252  1.00 16.58     0.025 A 
HETATM   13 CL16   D T 371       4.042   4.845  -5.284  1.00 28.15    -0.080 Cl
HETATM   14  C11   D T 371       4.364   0.968  -4.095  1.00 19.66     0.059 A 
HETATM   15  C12   D T 371       5.506   0.520  -4.755  1.00 21.08     0.013 A 
HETATM   16 CL15   D T 371       3.458  -0.158  -3.031  1.00 21.08    -0.082 Cl
HETATM   17  C13   D T 371       6.235   1.362  -5.590  1.00 20.62     0.026 A 
ENDBRANCH   1  10
TORSDOF 2
ENDMDL
MODEL 6
REMARK VINA RESULT:    -7.144      2.058      2.315
REMARK INTER + INTRA:          -8.515
REMARK INTER:                  -8.040
REMARK INTRA:                  -0.475
REMARK UNBOUND:                -0.536
REMARK  2 active torsions:
REMARK  status: ('A' for Active; 'I' for Inactive)
REMARK    1  A    between atoms: C5_4  and  O7_13 
REMARK    2  A    between atoms: C8_10  and  O7_13 
ROOT
HETATM    1  O7    D T 371       4.184   2.100  -7.098  1.00 19.13    -0.304 OA
ENDROOT
BRANCH   1   2
HETATM    2  C5    D T 371       5.134   1.897  -8.065  1.00 24.01     0.125 A 
HETATM    3  C6    D T 371       5.481   2.980  -9.018  1.00 25.08     0.154 A 
HETATM    4  C1    D T 371       6.448   2.740  -9.986  1.00 24.96     0.041 A 
HETATM    5  O17   D T 371       4.863   4.191  -8.945  1.00 32.11    -0.188 OA
HETATM    6  C2    D T 371       7.073   1.499 -10.051  1.00 25.04     0.060 A 
HETATM    7  C3    D T 371       6.745   0.484  -9.156  1.00 27.50     0.014 A 
HETATM    8 CL14   D T 371       8.322   1.202 -11.307  1.00 23.09    -0.082 Cl
HETATM    9  C4    D T 371       5.783   0.676  -8.168  1.00 24.93     0.028 A 
ENDBRANCH   1   2
BRANCH   1  10
HETATM   10  C8    D T 371       4.565   2.433  -5.824  1.00 19.85     0.111 A 
HETATM   11  C9    D T 371       4.598   1.402  -4.755  1.00 17.43     0.081 A 
HETATM   12  C10   D T 371       4.987   1.773  -3.475  1.00 16.58     0.025 A 
HETATM   13 CL16   D T 371       4.139  -0.297  -5.112  1.00 28.15    -0.080 Cl
HETATM   14  C11   D T 371       5.340   3.093  -3.210  1.00 19.66     0.059 A 
HETATM   15  C12   D T 371       5.309   4.057  -4.214  1.00 21.08     0.013 A 
HETATM   16 CL15   D T 371       5.843   3.558  -1.551  1.00 21.08    -0.082 Cl
HETATM   17  C13   D T 371       4.926   3.735  -5.513  1.00 20.62     0.026 A 
ENDBRANCH   1  10
TORSDOF 2
ENDMDL
MODEL 7
REMARK VINA RESULT:    -7.027      2.242      2.752
REMARK INTER + INTRA:          -8.384
REMARK INTER:                  -7.975
REMARK INTRA:                  -0.410
REMARK UNBOUND:                -0.536
REMARK  2 active torsions:
REMARK  status: ('A' for Active; 'I' for Inactive)
REMARK    1  A    between atoms: C5_4  and  O7_13 
REMARK    2  A    between atoms: C8_10  and  O7_13 
ROOT
HETATM    1  O7    D T 371       6.694   3.591  -6.912  1.00 19.13    -0.304 OA
ENDROOT
BRANCH   1   2
HETATM    2  C5    D T 371       6.942   3.197  -8.201  1.00 24.01     0.125 A 
HETATM    3  C6    D T 371       6.049   3.629  -9.305  1.00 25.08     0.154 A 
HETATM    4  C1    D T 371       6.330   3.211 -10.599  1.00 24.96     0.041 A 
HETATM    5  O17   D T 371       4.972   4.423  -9.054  1.00 32.11    -0.188 OA
HETATM    6  C2    D T 371       7.433   2.400 -10.844  1.00 25.04     0.060 A 
HETATM    7  C3    D T 371       8.270   1.996  -9.806  1.00 27.50     0.014 A 
HETATM    8 CL14   D T 371       7.786   1.868 -12.523  1.00 23.09    -0.082 Cl
HETATM    9  C4    D T 371       8.030   2.388  -8.492  1.00 24.93     0.028 A 
ENDBRANCH   1   2
BRANCH   1  10
HETATM   10  C8    D T 371       5.962   2.786  -6.079  1.00 19.85     0.111 A 
HETATM   11  C9    D T 371       6.641   1.882  -5.116  1.00 17.43     0.081 A 
HETATM   12  C10   D T 371       5.870   1.080  -4.287  1.00 16.58     0.025 A 
HETATM   13 CL16   D T 371       8.434   1.828  -5.027  1.00 28.15    -0.080 Cl
HETATM   14  C11   D T 371       4.481   1.130  -4.365  1.00 19.66     0.059 A 
HETATM   15  C12   D T 371       3.846   1.979  -5.268  1.00 21.08     0.013 A 
HETATM   16 CL15   D T 371       3.495   0.088  -3.286  1.00 21.08    -0.082 Cl
HETATM   17  C13   D T 371       4.575   2.803  -6.120  1.00 20.62     0.026 A 
ENDBRANCH   1  10
TORSDOF 2
ENDMDL
MODEL 8
REMARK VINA RESULT:    -6.868      2.388      6.099
REMARK INTER + INTRA:          -8.207
REMARK INTER:                  -7.685
REMARK INTRA:                  -0.522
REMARK UNBOUND:                -0.536
REMARK  2 active torsions:
REMARK  status: ('A' for Active; 'I' for Inactive)
REMARK    1  A    between atoms: C5_4  and  O7_13 
REMARK    2  A    between atoms: C8_10  and  O7_13 
ROOT
HETATM    1  O7    D T 371       4.240   2.426  -6.515  1.00 19.13    -0.304 OA
ENDROOT
BRANCH   1   2
HETATM    2  C5    D T 371       4.671   2.773  -5.262  1.00 24.01     0.125 A 
HETATM    3  C6    D T 371       4.471   4.152  -4.751  1.00 25.08     0.154 A 
HETATM    4  C1    D T 371       4.921   4.469  -3.476  1.00 24.96     0.041 A 
HETATM    5  O17   D T 371       3.855   5.091  -5.520  1.00 32.11    -0.188 OA
HETATM    6  C2    D T 371       5.549   3.501  -2.700  1.00 25.04     0.060 A 
HETATM    7  C3    D T 371       5.737   2.207  -3.181  1.00 27.50     0.014 A 
HETATM    8 CL14   D T 371       6.126   3.924  -1.052  1.00 23.09    -0.082 Cl
HETATM    9  C4    D T 371       5.303   1.840  -4.452  1.00 24.93     0.028 A 
ENDBRANCH   1   2
BRANCH   1  10
HETATM   10  C8    D T 371       5.151   2.143  -7.499  1.00 19.85     0.111 A 
HETATM   11  C9    D T 371       5.422   0.736  -7.893  1.00 17.43     0.081 A 
HETATM   12  C10   D T 371       6.351   0.485  -8.893  1.00 16.58     0.025 A 
HETATM   13 CL16   D T 371       4.560  -0.617  -7.087  1.00 28.15    -0.080 Cl
HETATM   14  C11   D T 371       7.013   1.541  -9.511  1.00 19.66     0.059 A 
HETATM   15  C12   D T 371       6.757   2.860  -9.140  1.00 21.08     0.013 A 
HETATM   16 CL15   D T 371       8.211   1.202 -10.803  1.00 21.08    -0.082 Cl
HETATM   17  C13   D T 371       5.835   3.164  -8.143  1.00 20.62     0.026 A 
ENDBRANCH   1  10
TORSDOF 2
ENDMDL
MODEL 9
REMARK VINA RESULT:    -6.747      2.748      3.276
REMARK INTER + INTRA:          -8.072
REMARK INTER:                  -7.568
REMARK INTRA:                  -0.504
REMARK UNBOUND:                -0.536
REMARK  2 active torsions:
REMARK  status: ('A' for Active; 'I' for Inactive)
REMARK    1  A    between atoms: C5_4  and  O7_13 
REMARK    2  A    between atoms: C8_10  and  O7_13 
ROOT
HETATM    1  O7    D T 371       5.284   1.878  -6.457  1.00 19.13    -0.304 OA
ENDROOT
BRANCH   1   2
HETATM    2  C5    D T 371       6.632   1.669  -6.332  1.00 24.01     0.125 A 
HETATM    3  C6    D T 371       7.583   2.281  -7.294  1.00 25.08     0.154 A 
HETATM    4  C1    D T 371       8.942   2.048  -7.137  1.00 24.96     0.041 A 
HETATM    5  O17   D T 371       7.128   3.061  -8.313  1.00 32.11    -0.188 OA
HETATM    6  C2    D T 371       9.395   1.250  -6.093  1.00 25.04     0.060 A 
HETATM    7  C3    D T 371       8.502   0.675  -5.191  1.00 27.50     0.014 A 
HETATM    8 CL14   D T 371      11.157   0.956  -5.901  1.00 23.09    -0.082 Cl
HETATM    9  C4    D T 371       7.130   0.879  -5.305  1.00 24.93     0.028 A 
ENDBRANCH   1   2
BRANCH   1  10
HETATM   10  C8    D T 371       4.642   2.735  -5.603  1.00 19.85     0.111 A 
HETATM   11  C9    D T 371       3.871   2.209  -4.447  1.00 17.43     0.081 A 
HETATM   12  C10   D T 371       3.233   3.105  -3.601  1.00 16.58     0.025 A 
HETATM   13 CL16   D T 371       3.768   0.441  -4.150  1.00 28.15    -0.080 Cl
HETATM   14  C11   D T 371       3.320   4.472  -3.840  1.00 19.66     0.059 A 
HETATM   15  C12   D T 371       4.044   4.963  -4.925  1.00 21.08     0.013 A 
HETATM   16 CL15   D T 371       2.490   5.620  -2.738  1.00 21.08    -0.082 Cl
HETATM   17  C13   D T 371       4.702   4.106  -5.801  1.00 20.62     0.026 A 
ENDBRANCH   1  10
TORSDOF 2
ENDMDL
