MODEL 1
REMARK VINA RESULT:   -11.585      0.000      0.000
REMARK INTER + INTRA:         -12.337
REMARK INTER:                 -12.939
REMARK INTRA:                   0.602
REMARK UNBOUND:                 0.602
REMARK  2 active torsions:
REMARK  status: ('A' for Active; 'I' for Inactive)
REMARK    1  A    between atoms: CAX_24  and  NBD_30 
REMARK    2  A    between atoms: CAY_25  and  CAZ_26 
ROOT
HETATM    1  CAE   D T   1      -3.749  -7.566  12.120  1.00 15.33     0.002 A 
HETATM    2  CAF   D T   1      -1.425  -7.082  12.266  1.00 33.04     0.002 A 
HETATM    3  CAG   D T   1      -3.512  -8.884  12.510  1.00 21.87     0.017 A 
HETATM    4  CAH   D T   1      -1.196  -8.412  12.642  1.00 18.39     0.017 A 
HETATM    5  CAK   D T   1      -2.073  -4.237  11.765  1.00 18.99     0.102 A 
HETATM    6  CAL   D T   1      -5.187  -1.916   9.570  1.00 11.90     0.124 A 
HETATM    7  CAM   D T   1      -4.134  -4.997  10.883  1.00 18.90     0.104 A 
HETATM    8  NAS   D T   1      -2.340  -3.007  11.346  1.00 18.39    -0.225 NA
HETATM    9  NAT   D T   1      -5.378  -3.233   9.778  1.00 12.09    -0.162 NA
HETATM   10  CAV   D T   1      -2.718  -6.630  12.007  1.00 21.96     0.003 A 
HETATM   11  CAW   D T   1      -2.972  -5.288  11.576  1.00 19.91     0.038 A 
HETATM   12  CAX   D T   1      -2.224  -9.314  12.771  1.00 28.57     0.056 A 
HETATM   13  CAZ   D T   1      -4.008  -1.539  10.094  1.00 11.86     0.057 A 
HETATM   14  CBC   D T   1      -3.472  -2.707  10.671  1.00 11.35     0.165 A 
HETATM   15  NBE   D T   1      -4.416  -3.704  10.432  1.00 13.25    -0.211 N 
ENDROOT
BRANCH  13  16
HETATM   16  CAY   D T   1      -3.446  -0.233  10.042  1.00 15.42     0.007 A 
HETATM   17  CAD   D T   1      -2.337   0.050  10.832  1.00 12.05     0.021 A 
HETATM   18  CAC   D T   1      -1.781   1.325  10.885  1.00 20.05     0.099 A 
HETATM   19  NAR   D T   1      -2.281   2.325  10.205  1.00 15.05    -0.244 NA
HETATM   20  CBA   D T   1      -3.389   2.117   9.432  1.00 17.37     0.081 A 
HETATM   21  CAI   D T   1      -3.924   3.184   8.737  1.00 17.61     0.019 A 
HETATM   22  CBB   D T   1      -3.987   0.862   9.335  1.00 11.87     0.018 A 
HETATM   23  CAA   D T   1      -5.074   3.038   7.942  1.00 16.02     0.002 A 
HETATM   24  CAB   D T   1      -5.654   1.791   7.833  1.00 12.08     0.000 A 
HETATM   25  CAJ   D T   1      -5.135   0.727   8.539  1.00 13.82     0.002 A 
ENDBRANCH  13  16
BRANCH  12  26
HETATM   26  NBD   D T   1      -1.919 -10.642  13.082  1.00 22.08    -0.344 N 
HETATM   27  CAP   D T   1      -2.959 -11.477  13.811  1.00 30.90     0.127 C 
HETATM   28  CAN   D T   1      -2.514 -12.907  14.246  1.00 24.56     0.144 C 
HETATM   29  NAU   D T   1      -1.166 -13.267  13.775  1.00 23.51    -0.291 NA
HETATM   30  CAO   D T   1      -0.803 -12.729  12.448  1.00 28.25     0.144 C 
HETATM   31  CAQ   D T   1      -0.723 -11.217  12.449  1.00 25.74     0.127 C 
ENDBRANCH  12  26
TORSDOF 2
ENDMDL
MODEL 2
REMARK VINA RESULT:   -11.341      1.809     11.138
REMARK INTER + INTRA:         -12.065
REMARK INTER:                 -11.551
REMARK INTRA:                  -0.513
REMARK UNBOUND:                 0.602
REMARK  2 active torsions:
REMARK  status: ('A' for Active; 'I' for Inactive)
REMARK    1  A    between atoms: CAX_24  and  NBD_30 
REMARK    2  A    between atoms: CAY_25  and  CAZ_26 
ROOT
HETATM    1  CAE   D T   1      -2.219  -3.437  11.514  1.00 15.33     0.002 A 
HETATM    2  CAF   D T   1      -4.089  -4.403  10.407  1.00 33.04     0.002 A 
HETATM    3  CAG   D T   1      -2.700  -2.158  11.240  1.00 21.87     0.017 A 
HETATM    4  CAH   D T   1      -4.556  -3.112  10.122  1.00 18.39     0.017 A 
HETATM    5  CAK   D T   1      -3.161  -7.057  11.332  1.00 18.99     0.102 A 
HETATM    6  CAL   D T   1       0.727  -9.025  12.291  1.00 11.90     0.124 A 
HETATM    7  CAM   D T   1      -1.038  -6.058  11.652  1.00 18.90     0.104 A 
HETATM    8  NAS   D T   1      -2.641  -8.253  11.575  1.00 18.39    -0.225 NA
HETATM    9  NAT   D T   1       0.692  -7.687  12.135  1.00 12.09    -0.162 NA
HETATM   10  CAV   D T   1      -2.908  -4.588  11.123  1.00 21.96     0.003 A 
HETATM   11  CAW   D T   1      -2.387  -5.896  11.385  1.00 19.91     0.038 A 
HETATM   12  CAX   D T   1      -3.877  -1.991  10.534  1.00 28.57     0.056 A 
HETATM   13  CAZ   D T   1      -0.502  -9.537  12.105  1.00 11.86     0.057 A 
HETATM   14  CBC   D T   1      -1.327  -8.427  11.841  1.00 11.35     0.165 A 
HETATM   15  NBE   D T   1      -0.484  -7.318  11.899  1.00 13.25    -0.211 N 
ENDROOT
BRANCH  13  16
HETATM   16  CAY   D T   1      -0.853 -10.915  12.154  1.00 15.42     0.007 A 
HETATM   17  CAD   D T   1      -0.526 -11.727  11.073  1.00 12.05     0.021 A 
HETATM   18  CAC   D T   1      -0.902 -13.066  11.023  1.00 20.05     0.099 A 
HETATM   19  NAR   D T   1      -1.593 -13.626  11.983  1.00 15.05    -0.244 NA
HETATM   20  CBA   D T   1      -1.970 -12.872  13.059  1.00 17.37     0.081 A 
HETATM   21  CAI   D T   1      -2.720 -13.464  14.056  1.00 17.61     0.019 A 
HETATM   22  CBB   D T   1      -1.620 -11.527  13.168  1.00 11.87     0.018 A 
HETATM   23  CAA   D T   1      -3.155 -12.737  15.176  1.00 16.02     0.002 A 
HETATM   24  CAB   D T   1      -2.792 -11.411  15.292  1.00 12.08     0.000 A 
HETATM   25  CAJ   D T   1      -2.059 -10.810  14.291  1.00 13.82     0.002 A 
ENDBRANCH  13  16
BRANCH  12  26
HETATM   26  NBD   D T   1      -4.362  -0.736  10.158  1.00 22.08    -0.344 N 
HETATM   27  CAP   D T   1      -5.539  -0.666   9.200  1.00 30.90     0.127 C 
HETATM   28  CAN   D T   1      -5.951   0.758   8.716  1.00 24.56     0.144 C 
HETATM   29  NAU   D T   1      -5.187   1.838   9.363  1.00 23.51    -0.291 NA
HETATM   30  CAO   D T   1      -4.826   1.590  10.774  1.00 28.25     0.144 C 
HETATM   31  CAQ   D T   1      -3.873   0.422  10.921  1.00 25.74     0.127 C 
ENDBRANCH  12  26
TORSDOF 2
ENDMDL
MODEL 3
REMARK VINA RESULT:   -10.977      5.141     11.077
REMARK INTER + INTRA:         -11.658
REMARK INTER:                 -11.572
REMARK INTRA:                  -0.086
REMARK UNBOUND:                 0.602
REMARK  2 active torsions:
REMARK  status: ('A' for Active; 'I' for Inactive)
REMARK    1  A    between atoms: CAX_24  and  NBD_30 
REMARK    2  A    between atoms: CAY_25  and  CAZ_26 
ROOT
HETATM    1  CAE   D T   1       2.211   3.309   9.870  1.00 15.33     0.002 A 
HETATM    2  CAF   D T   1       3.549   1.414  10.392  1.00 33.04     0.002 A 
HETATM    3  CAG   D T   1       3.354   4.096   9.734  1.00 21.87     0.017 A 
HETATM    4  CAH   D T   1       4.691   2.217  10.267  1.00 18.39     0.017 A 
HETATM    5  CAK   D T   1       1.092  -0.236  10.322  1.00 18.99     0.102 A 
HETATM    6  CAL   D T   1      -3.257   0.315  11.153  1.00 11.90     0.124 A 
HETATM    7  CAM   D T   1      -0.113   1.782  10.610  1.00 18.90     0.104 A 
HETATM    8  NAS   D T   1      -0.024  -0.933  10.487  1.00 18.39    -0.225 NA
HETATM    9  NAT   D T   1      -2.467   1.402  11.056  1.00 12.09    -0.162 NA
HETATM   10  CAV   D T   1       2.280   1.949  10.183  1.00 21.96     0.003 A 
HETATM   11  CAW   D T   1       1.096   1.160  10.349  1.00 19.91     0.038 A 
HETATM   12  CAX   D T   1       4.607   3.548   9.938  1.00 28.57     0.056 A 
HETATM   13  CAZ   D T   1      -2.523  -0.798  10.976  1.00 11.86     0.057 A 
HETATM   14  CBC   D T   1      -1.213  -0.341  10.738  1.00 11.35     0.165 A 
HETATM   15  NBE   D T   1      -1.290   1.050  10.793  1.00 13.25    -0.211 N 
ENDROOT
BRANCH  13  16
HETATM   16  CAY   D T   1      -3.001  -2.136  11.042  1.00 15.42     0.007 A 
HETATM   17  CAD   D T   1      -2.301  -3.059  11.812  1.00 12.05     0.021 A 
HETATM   18  CAC   D T   1      -2.670  -4.400  11.863  1.00 20.05     0.099 A 
HETATM   19  NAR   D T   1      -3.685  -4.864  11.180  1.00 15.05    -0.244 NA
HETATM   20  CBA   D T   1      -4.395  -4.012  10.381  1.00 17.37     0.081 A 
HETATM   21  CAI   D T   1      -5.451  -4.514   9.645  1.00 17.61     0.019 A 
HETATM   22  CBB   D T   1      -4.077  -2.658  10.292  1.00 11.87     0.018 A 
HETATM   23  CAA   D T   1      -6.205  -3.693   8.791  1.00 16.02     0.002 A 
HETATM   24  CAB   D T   1      -5.900  -2.349   8.717  1.00 12.08     0.000 A 
HETATM   25  CAJ   D T   1      -4.837  -1.846   9.436  1.00 13.82     0.002 A 
ENDBRANCH  13  16
BRANCH  12  26
HETATM   26  NBD   D T   1       5.779   4.307   9.898  1.00 22.08    -0.344 N 
HETATM   27  CAP   D T   1       7.055   3.709  10.469  1.00 30.90     0.127 C 
HETATM   28  CAN   D T   1       8.298   4.649  10.514  1.00 24.56     0.144 C 
HETATM   29  NAU   D T   1       8.061   5.959   9.883  1.00 23.51    -0.291 NA
HETATM   30  CAO   D T   1       7.170   5.934   8.705  1.00 28.25     0.144 C 
HETATM   31  CAQ   D T   1       5.759   5.520   9.068  1.00 25.74     0.127 C 
ENDBRANCH  12  26
TORSDOF 2
ENDMDL
MODEL 4
REMARK VINA RESULT:   -10.956      1.231      2.578
REMARK INTER + INTRA:         -11.635
REMARK INTER:                 -12.231
REMARK INTRA:                   0.596
REMARK UNBOUND:                 0.602
REMARK  2 active torsions:
REMARK  status: ('A' for Active; 'I' for Inactive)
REMARK    1  A    between atoms: CAX_24  and  NBD_30 
REMARK    2  A    between atoms: CAY_25  and  CAZ_26 
ROOT
HETATM    1  CAE   D T   1      -1.348  -7.592  12.497  1.00 15.33     0.002 A 
HETATM    2  CAF   D T   1      -3.685  -8.007  12.364  1.00 33.04     0.002 A 
HETATM    3  CAG   D T   1      -1.128  -8.895  12.939  1.00 21.87     0.017 A 
HETATM    4  CAH   D T   1      -3.456  -9.310  12.824  1.00 18.39     0.017 A 
HETATM    5  CAK   D T   1      -4.003  -5.343  11.113  1.00 18.99     0.102 A 
HETATM    6  CAL   D T   1      -1.965  -1.377  11.272  1.00 11.90     0.124 A 
HETATM    7  CAM   D T   1      -1.889  -4.804  12.034  1.00 18.90     0.104 A 
HETATM    8  NAS   D T   1      -4.169  -4.081  10.740  1.00 18.39    -0.225 NA
HETATM    9  NAT   D T   1      -1.355  -2.448  11.817  1.00 12.09    -0.162 NA
HETATM   10  CAV   D T   1      -2.625  -7.121  12.181  1.00 21.96     0.003 A 
HETATM   11  CAW   D T   1      -2.840  -5.771  11.756  1.00 19.91     0.038 A 
HETATM   12  CAX   D T   1      -2.190  -9.764  13.109  1.00 28.57     0.056 A 
HETATM   13  CAZ   D T   1      -3.154  -1.741  10.762  1.00 11.86     0.057 A 
HETATM   14  CBC   D T   1      -3.248  -3.126  11.000  1.00 11.35     0.165 A 
HETATM   15  NBE   D T   1      -2.064  -3.471  11.650  1.00 13.25    -0.211 N 
ENDROOT
BRANCH  13  16
HETATM   16  CAY   D T   1      -4.098  -0.879  10.137  1.00 15.42     0.007 A 
HETATM   17  CAD   D T   1      -5.324  -1.404   9.744  1.00 12.05     0.021 A 
HETATM   18  CAC   D T   1      -6.265  -0.636   9.063  1.00 20.05     0.099 A 
HETATM   19  NAR   D T   1      -6.038   0.614   8.747  1.00 15.05    -0.244 NA
HETATM   20  CBA   D T   1      -4.839   1.178   9.080  1.00 17.37     0.081 A 
HETATM   21  CAI   D T   1      -4.598   2.490   8.721  1.00 17.61     0.019 A 
HETATM   22  CBB   D T   1      -3.859   0.462   9.766  1.00 11.87     0.018 A 
HETATM   23  CAA   D T   1      -3.378   3.119   9.017  1.00 16.02     0.002 A 
HETATM   24  CAB   D T   1      -2.417   2.415   9.712  1.00 12.08     0.000 A 
HETATM   25  CAJ   D T   1      -2.644   1.099  10.057  1.00 13.82     0.002 A 
ENDBRANCH  13  16
BRANCH  12  26
HETATM   26  NBD   D T   1      -2.038 -11.051  13.629  1.00 22.08    -0.344 N 
HETATM   27  CAP   D T   1      -0.684 -11.458  14.186  1.00 30.90     0.127 C 
HETATM   28  CAN   D T   1      -0.539 -12.945  14.632  1.00 24.56     0.144 C 
HETATM   29  NAU   D T   1      -1.797 -13.706  14.543  1.00 23.51    -0.291 NA
HETATM   30  CAO   D T   1      -3.018 -12.935  14.854  1.00 28.25     0.144 C 
HETATM   31  CAQ   D T   1      -3.266 -11.831  13.847  1.00 25.74     0.127 C 
ENDBRANCH  12  26
TORSDOF 2
ENDMDL
MODEL 5
REMARK VINA RESULT:   -10.877      4.727     10.756
REMARK INTER + INTRA:         -11.546
REMARK INTER:                 -11.179
REMARK INTRA:                  -0.367
REMARK UNBOUND:                 0.602
REMARK  2 active torsions:
REMARK  status: ('A' for Active; 'I' for Inactive)
REMARK    1  A    between atoms: CAX_24  and  NBD_30 
REMARK    2  A    between atoms: CAY_25  and  CAZ_26 
ROOT
HETATM    1  CAE   D T   1       1.712   3.194  10.355  1.00 15.33     0.002 A 
HETATM    2  CAF   D T   1       2.682   1.092   9.812  1.00 33.04     0.002 A 
HETATM    3  CAG   D T   1       2.972   3.791  10.353  1.00 21.87     0.017 A 
HETATM    4  CAH   D T   1       3.946   1.698   9.827  1.00 18.39     0.017 A 
HETATM    5  CAK   D T   1      -0.053   0.002   9.509  1.00 18.99     0.102 A 
HETATM    6  CAL   D T   1      -4.095   0.746  11.246  1.00 11.90     0.124 A 
HETATM    7  CAM   D T   1      -0.789   1.843  10.804  1.00 18.90     0.104 A 
HETATM    8  NAS   D T   1      -1.266  -0.532   9.569  1.00 18.39    -0.225 NA
HETATM    9  NAT   D T   1      -3.114   1.643  11.464  1.00 12.09    -0.162 NA
HETATM   10  CAV   D T   1       1.533   1.838  10.067  1.00 21.96     0.003 A 
HETATM   11  CAW   D T   1       0.237   1.231  10.103  1.00 19.91     0.038 A 
HETATM   12  CAX   D T   1       4.101   3.038  10.090  1.00 28.57     0.056 A 
HETATM   13  CAZ   D T   1      -3.624  -0.271  10.504  1.00 11.86     0.057 A 
HETATM   14  CBC   D T   1      -2.279   0.054  10.246  1.00 11.35     0.165 A 
HETATM   15  NBE   D T   1      -2.066   1.278  10.877  1.00 13.25    -0.211 N 
ENDROOT
BRANCH  13  16
HETATM   16  CAY   D T   1      -4.355  -1.423  10.101  1.00 15.42     0.007 A 
HETATM   17  CAD   D T   1      -5.523  -1.250   9.364  1.00 12.05     0.021 A 
HETATM   18  CAC   D T   1      -6.325  -2.327   8.999  1.00 20.05     0.099 A 
HETATM   19  NAR   D T   1      -6.029  -3.555   9.340  1.00 15.05    -0.244 NA
HETATM   20  CBA   D T   1      -4.910  -3.787  10.090  1.00 17.37     0.081 A 
HETATM   21  CAI   D T   1      -4.618  -5.084  10.466  1.00 17.61     0.019 A 
HETATM   22  CBB   D T   1      -4.065  -2.751  10.482  1.00 11.87     0.018 A 
HETATM   23  CAA   D T   1      -3.494  -5.383  11.254  1.00 16.02     0.002 A 
HETATM   24  CAB   D T   1      -2.649  -4.358  11.626  1.00 12.08     0.000 A 
HETATM   25  CAJ   D T   1      -2.945  -3.060  11.268  1.00 13.82     0.002 A 
ENDBRANCH  13  16
BRANCH  12  26
HETATM   26  NBD   D T   1       5.393   3.564  10.157  1.00 22.08    -0.344 N 
HETATM   27  CAP   D T   1       6.575   2.614  10.050  1.00 30.90     0.127 C 
HETATM   28  CAN   D T   1       7.986   3.241  10.261  1.00 24.56     0.144 C 
HETATM   29  NAU   D T   1       7.956   4.704  10.427  1.00 23.51    -0.291 NA
HETATM   30  CAO   D T   1       6.926   5.403   9.630  1.00 28.25     0.144 C 
HETATM   31  CAQ   D T   1       5.523   5.026  10.058  1.00 25.74     0.127 C 
ENDBRANCH  12  26
TORSDOF 2
ENDMDL
MODEL 6
REMARK VINA RESULT:   -10.873      6.105     11.042
REMARK INTER + INTRA:         -11.541
REMARK INTER:                 -11.254
REMARK INTRA:                  -0.287
REMARK UNBOUND:                 0.602
REMARK  2 active torsions:
REMARK  status: ('A' for Active; 'I' for Inactive)
REMARK    1  A    between atoms: CAX_24  and  NBD_30 
REMARK    2  A    between atoms: CAY_25  and  CAZ_26 
ROOT
HETATM    1  CAE   D T   1       3.821   2.977   8.939  1.00 15.33     0.002 A 
HETATM    2  CAF   D T   1       4.410   0.700   8.588  1.00 33.04     0.002 A 
HETATM    3  CAG   D T   1       5.105   3.379   8.574  1.00 21.87     0.017 A 
HETATM    4  CAH   D T   1       5.702   1.113   8.237  1.00 18.39     0.017 A 
HETATM    5  CAK   D T   1       1.575  -0.017   9.048  1.00 18.99     0.102 A 
HETATM    6  CAL   D T   1      -1.866   1.553  11.414  1.00 11.90     0.124 A 
HETATM    7  CAM   D T   1       1.354   2.083  10.120  1.00 18.90     0.104 A 
HETATM    8  NAS   D T   1       0.356  -0.355   9.448  1.00 18.39    -0.225 NA
HETATM    9  NAT   D T   1      -0.770   2.322  11.265  1.00 12.09    -0.162 NA
HETATM   10  CAV   D T   1       3.436   1.633   8.937  1.00 21.96     0.003 A 
HETATM   11  CAW   D T   1       2.123   1.232   9.344  1.00 19.91     0.038 A 
HETATM   12  CAX   D T   1       6.057   2.440   8.223  1.00 28.57     0.056 A 
HETATM   13  CAZ   D T   1      -1.688   0.380  10.783  1.00 11.86     0.057 A 
HETATM   14  CBC   D T   1      -0.408   0.465  10.202  1.00 11.35     0.165 A 
HETATM   15  NBE   D T   1       0.073   1.726  10.551  1.00 13.25    -0.211 N 
ENDROOT
BRANCH  13  16
HETATM   16  CAY   D T   1      -2.612  -0.702  10.747  1.00 15.42     0.007 A 
HETATM   17  CAD   D T   1      -2.215  -1.938  11.247  1.00 12.05     0.021 A 
HETATM   18  CAC   D T   1      -3.041  -3.056  11.178  1.00 20.05     0.099 A 
HETATM   19  NAR   D T   1      -4.227  -3.005  10.627  1.00 15.05    -0.244 NA
HETATM   20  CBA   D T   1      -4.663  -1.825  10.091  1.00 17.37     0.081 A 
HETATM   21  CAI   D T   1      -5.906  -1.787   9.491  1.00 17.61     0.019 A 
HETATM   22  CBB   D T   1      -3.883  -0.671  10.135  1.00 11.87     0.018 A 
HETATM   23  CAA   D T   1      -6.400  -0.610   8.904  1.00 16.02     0.002 A 
HETATM   24  CAB   D T   1      -5.636   0.537   8.964  1.00 12.08     0.000 A 
HETATM   25  CAJ   D T   1      -4.386   0.500   9.546  1.00 13.82     0.002 A 
ENDBRANCH  13  16
BRANCH  12  26
HETATM   26  NBD   D T   1       7.381   2.778   7.931  1.00 22.08    -0.344 N 
HETATM   27  CAP   D T   1       8.380   1.662   7.672  1.00 30.90     0.127 C 
HETATM   28  CAN   D T   1       9.865   2.095   7.480  1.00 24.56     0.144 C 
HETATM   29  NAU   D T   1      10.050   3.556   7.472  1.00 23.51    -0.291 NA
HETATM   30  CAO   D T   1       8.949   4.322   6.852  1.00 28.25     0.144 C 
HETATM   31  CAQ   D T   1       7.656   4.191   7.630  1.00 25.74     0.127 C 
ENDBRANCH  12  26
TORSDOF 2
ENDMDL
MODEL 7
REMARK VINA RESULT:   -10.822      5.758     10.679
REMARK INTER + INTRA:         -11.485
REMARK INTER:                 -10.959
REMARK INTRA:                  -0.525
REMARK UNBOUND:                 0.602
REMARK  2 active torsions:
REMARK  status: ('A' for Active; 'I' for Inactive)
REMARK    1  A    between atoms: CAX_24  and  NBD_30 
REMARK    2  A    between atoms: CAY_25  and  CAZ_26 
ROOT
HETATM    1  CAE   D T   1       3.540   2.563   9.485  1.00 15.33     0.002 A 
HETATM    2  CAF   D T   1       3.718   0.454   8.401  1.00 33.04     0.002 A 
HETATM    3  CAG   D T   1       4.904   2.787   9.303  1.00 21.87     0.017 A 
HETATM    4  CAH   D T   1       5.091   0.681   8.236  1.00 18.39     0.017 A 
HETATM    5  CAK   D T   1       0.769   0.230   8.534  1.00 18.99     0.102 A 
HETATM    6  CAL   D T   1      -2.511   1.622  11.220  1.00 11.90     0.124 A 
HETATM    7  CAM   D T   1       0.854   1.865  10.246  1.00 18.90     0.104 A 
HETATM    8  NAS   D T   1      -0.522   0.040   8.772  1.00 18.39    -0.225 NA
HETATM    9  NAT   D T   1      -1.280   2.152  11.361  1.00 12.09    -0.162 NA
HETATM   10  CAV   D T   1       2.911   1.404   9.024  1.00 21.96     0.003 A 
HETATM   11  CAW   D T   1       1.514   1.173   9.244  1.00 19.91     0.038 A 
HETATM   12  CAX   D T   1       5.689   1.837   8.676  1.00 28.57     0.056 A 
HETATM   13  CAZ   D T   1      -2.501   0.707  10.235  1.00 11.86     0.057 A 
HETATM   14  CBC   D T   1      -1.182   0.710   9.743  1.00 11.35     0.165 A 
HETATM   15  NBE   D T   1      -0.505   1.661  10.505  1.00 13.25    -0.211 N 
ENDROOT
BRANCH  13  16
HETATM   16  CAY   D T   1      -3.605  -0.087   9.818  1.00 15.42     0.007 A 
HETATM   17  CAD   D T   1      -4.621   0.513   9.081  1.00 12.05     0.021 A 
HETATM   18  CAC   D T   1      -5.764  -0.186   8.704  1.00 20.05     0.099 A 
HETATM   19  NAR   D T   1      -5.947  -1.440   9.033  1.00 15.05    -0.244 NA
HETATM   20  CBA   D T   1      -4.998  -2.077   9.783  1.00 17.37     0.081 A 
HETATM   21  CAI   D T   1      -5.210  -3.392  10.146  1.00 17.61     0.019 A 
HETATM   22  CBB   D T   1      -3.831  -1.431  10.187  1.00 11.87     0.018 A 
HETATM   23  CAA   D T   1      -4.282  -4.094  10.932  1.00 16.02     0.002 A 
HETATM   24  CAB   D T   1      -3.119  -3.460  11.316  1.00 12.08     0.000 A 
HETATM   25  CAJ   D T   1      -2.910  -2.141  10.972  1.00 13.82     0.002 A 
ENDBRANCH  13  16
BRANCH  12  26
HETATM   26  NBD   D T   1       7.074   1.971   8.542  1.00 22.08    -0.344 N 
HETATM   27  CAP   D T   1       7.793   1.111   7.515  1.00 30.90     0.127 C 
HETATM   28  CAN   D T   1       9.349   1.209   7.502  1.00 24.56     0.144 C 
HETATM   29  NAU   D T   1       9.878   2.222   8.431  1.00 23.51    -0.291 NA
HETATM   30  CAO   D T   1       9.041   3.431   8.582  1.00 28.25     0.144 C 
HETATM   31  CAQ   D T   1       7.700   3.120   9.212  1.00 25.74     0.127 C 
ENDBRANCH  12  26
TORSDOF 2
ENDMDL
MODEL 8
REMARK VINA RESULT:   -10.811      2.404     10.968
REMARK INTER + INTRA:         -11.473
REMARK INTER:                 -10.978
REMARK INTRA:                  -0.494
REMARK UNBOUND:                 0.602
REMARK  2 active torsions:
REMARK  status: ('A' for Active; 'I' for Inactive)
REMARK    1  A    between atoms: CAX_24  and  NBD_30 
REMARK    2  A    between atoms: CAY_25  and  CAZ_26 
ROOT
HETATM    1  CAE   D T   1      -4.271  -4.077  10.517  1.00 15.33     0.002 A 
HETATM    2  CAF   D T   1      -2.221  -3.132  11.265  1.00 33.04     0.002 A 
HETATM    3  CAG   D T   1      -4.698  -2.829  10.067  1.00 21.87     0.017 A 
HETATM    4  CAH   D T   1      -2.666  -1.878  10.823  1.00 18.39     0.017 A 
HETATM    5  CAK   D T   1      -1.276  -5.871  11.872  1.00 18.99     0.102 A 
HETATM    6  CAL   D T   1      -3.071  -9.764  13.111  1.00 11.90     0.124 A 
HETATM    7  CAM   D T   1      -3.555  -6.517  11.863  1.00 18.90     0.104 A 
HETATM    8  NAS   D T   1      -0.932  -7.068  12.327  1.00 18.39    -0.225 NA
HETATM    9  NAT   D T   1      -3.881  -8.778  12.678  1.00 12.09    -0.162 NA
HETATM   10  CAV   D T   1      -3.018  -4.264  11.108  1.00 21.96     0.003 A 
HETATM   11  CAW   D T   1      -2.605  -5.546  11.592  1.00 19.91     0.038 A 
HETATM   12  CAX   D T   1      -3.891  -1.717  10.224  1.00 28.57     0.056 A 
HETATM   13  CAZ   D T   1      -1.794  -9.344  13.090  1.00 11.86     0.057 A 
HETATM   14  CBC   D T   1      -1.846  -8.028  12.592  1.00 11.35     0.165 A 
HETATM   15  NBE   D T   1      -3.197  -7.778  12.351  1.00 13.25    -0.211 N 
ENDROOT
BRANCH  13  16
HETATM   16  CAY   D T   1      -0.659 -10.093  13.507  1.00 15.42     0.007 A 
HETATM   17  CAD   D T   1       0.021 -10.859  12.565  1.00 12.05     0.021 A 
HETATM   18  CAC   D T   1       1.095 -11.671  12.918  1.00 20.05     0.099 A 
HETATM   19  NAR   D T   1       1.510 -11.768  14.155  1.00 15.05    -0.244 NA
HETATM   20  CBA   D T   1       0.864 -11.063  15.132  1.00 17.37     0.081 A 
HETATM   21  CAI   D T   1       1.295 -11.189  16.438  1.00 17.61     0.019 A 
HETATM   22  CBB   D T   1      -0.213 -10.229  14.840  1.00 11.87     0.018 A 
HETATM   23  CAA   D T   1       0.659 -10.507  17.488  1.00 16.02     0.002 A 
HETATM   24  CAB   D T   1      -0.396  -9.667  17.196  1.00 12.08     0.000 A 
HETATM   25  CAJ   D T   1      -0.842  -9.552  15.896  1.00 13.82     0.002 A 
ENDBRANCH  13  16
BRANCH  12  26
HETATM   26  NBD   D T   1      -4.302  -0.429   9.869  1.00 22.08    -0.344 N 
HETATM   27  CAP   D T   1      -5.434  -0.275   8.867  1.00 30.90     0.127 C 
HETATM   28  CAN   D T   1      -5.760   1.181   8.413  1.00 24.56     0.144 C 
HETATM   29  NAU   D T   1      -4.975   2.203   9.125  1.00 23.51    -0.291 NA
HETATM   30  CAO   D T   1      -4.685   1.896  10.541  1.00 28.25     0.144 C 
HETATM   31  CAQ   D T   1      -3.793   0.681  10.688  1.00 25.74     0.127 C 
ENDBRANCH  12  26
TORSDOF 2
ENDMDL
MODEL 9
REMARK VINA RESULT:   -10.764      4.882     10.504
REMARK INTER + INTRA:         -11.420
REMARK INTER:                 -11.299
REMARK INTRA:                  -0.120
REMARK UNBOUND:                 0.602
REMARK  2 active torsions:
REMARK  status: ('A' for Active; 'I' for Inactive)
REMARK    1  A    between atoms: CAX_24  and  NBD_30 
REMARK    2  A    between atoms: CAY_25  and  CAZ_26 
ROOT
HETATM    1  CAE   D T   1       2.853   1.419  11.354  1.00 15.33     0.002 A 
HETATM    2  CAF   D T   1       2.417   1.372   9.016  1.00 33.04     0.002 A 
HETATM    3  CAG   D T   1       3.959   2.241  11.144  1.00 21.87     0.017 A 
HETATM    4  CAH   D T   1       3.540   2.186   8.815  1.00 18.39     0.017 A 
HETATM    5  CAK   D T   1      -0.094  -0.083   9.599  1.00 18.99     0.102 A 
HETATM    6  CAL   D T   1      -1.598  -2.929  12.688  1.00 11.90     0.124 A 
HETATM    7  CAM   D T   1       0.864  -0.633  11.694  1.00 18.90     0.104 A 
HETATM    8  NAS   D T   1      -1.109  -0.902   9.842  1.00 18.39    -0.225 NA
HETATM    9  NAT   D T   1      -0.442  -2.275  12.910  1.00 12.09    -0.162 NA
HETATM   10  CAV   D T   1       2.045   0.980  10.301  1.00 21.96     0.003 A 
HETATM   11  CAW   D T   1       0.930   0.111  10.528  1.00 19.91     0.038 A 
HETATM   12  CAX   D T   1       4.310   2.627   9.864  1.00 28.57     0.056 A 
HETATM   13  CAZ   D T   1      -2.099  -2.576  11.492  1.00 11.86     0.057 A 
HETATM   14  CBC   D T   1      -1.190  -1.632  10.977  1.00 11.35     0.165 A 
HETATM   15  NBE   D T   1      -0.199  -1.504  11.949  1.00 13.25    -0.211 N 
ENDROOT
BRANCH  13  16
HETATM   16  CAY   D T   1      -3.288  -3.083  10.898  1.00 15.42     0.007 A 
HETATM   17  CAD   D T   1      -3.408  -4.456  10.708  1.00 12.05     0.021 A 
HETATM   18  CAC   D T   1      -4.511  -5.014  10.068  1.00 20.05     0.099 A 
HETATM   19  NAR   D T   1      -5.484  -4.274   9.600  1.00 15.05    -0.244 NA
HETATM   20  CBA   D T   1      -5.410  -2.916   9.729  1.00 17.37     0.081 A 
HETATM   21  CAI   D T   1      -6.431  -2.142   9.211  1.00 17.61     0.019 A 
HETATM   22  CBB   D T   1      -4.334  -2.300  10.365  1.00 11.87     0.018 A 
HETATM   23  CAA   D T   1      -6.402  -0.740   9.295  1.00 16.02     0.002 A 
HETATM   24  CAB   D T   1      -5.345  -0.133   9.940  1.00 12.08     0.000 A 
HETATM   25  CAJ   D T   1      -4.315  -0.899  10.443  1.00 13.82     0.002 A 
ENDBRANCH  13  16
BRANCH  12  26
HETATM   26  NBD   D T   1       5.455   3.379   9.588  1.00 22.08    -0.344 N 
HETATM   27  CAP   D T   1       6.432   2.864   8.543  1.00 30.90     0.127 C 
HETATM   28  CAN   D T   1       7.751   3.676   8.372  1.00 24.56     0.144 C 
HETATM   29  NAU   D T   1       7.792   4.901   9.190  1.00 23.51    -0.291 NA
HETATM   30  CAO   D T   1       6.494   5.586   9.356  1.00 28.25     0.144 C 
HETATM   31  CAQ   D T   1       5.501   4.745  10.131  1.00 25.74     0.127 C 
ENDBRANCH  12  26
TORSDOF 2
ENDMDL
