MODEL 1
REMARK VINA RESULT:    -7.726      0.000      0.000
REMARK INTER + INTRA:          -8.993
REMARK INTER:                  -8.629
REMARK INTRA:                  -0.364
REMARK UNBOUND:                -0.364
REMARK  2 active torsions:
REMARK  status: ('A' for Active; 'I' for Inactive)
REMARK    1  A    between atoms: C5_4  and  O7_13 
REMARK    2  A    between atoms: C8_10  and  O7_13 
ROOT
HETATM    1  O7    D T 262       5.688   0.180  -7.479  1.00 33.42    -0.304 OA
ENDROOT
BRANCH   1   2
HETATM    2  C5    D T 262       4.965   1.132  -6.742  1.00 32.62     0.125 A 
HETATM    3  C6    D T 262       3.969   0.685  -5.854  1.00 29.39     0.154 A 
HETATM    4  C1    D T 262       3.214   1.629  -5.085  1.00 31.49     0.041 A 
HETATM    5  O17   D T 262       3.756  -0.661  -5.758  1.00 29.04    -0.188 OA
HETATM    6  C2    D T 262       3.474   3.030  -5.225  1.00 34.86     0.060 A 
HETATM    7  C3    D T 262       4.478   3.475  -6.125  1.00 33.50     0.014 A 
HETATM    8 CL14   D T 262       2.596   4.155  -4.330  1.00 29.54    -0.082 Cl
HETATM    9  C4    D T 262       5.233   2.533  -6.889  1.00 31.24     0.028 A 
ENDBRANCH   1   2
BRANCH   1  10
HETATM   10  C8    D T 262       6.147   0.503  -8.759  1.00 31.42     0.111 A 
HETATM   11  C9    D T 262       5.201   0.427  -9.856  1.00 37.59     0.081 A 
HETATM   12  C10   D T 262       5.620   0.742 -11.173  1.00 33.67     0.025 A 
HETATM   13 CL16   D T 262       3.571  -0.044  -9.602  1.00 45.56    -0.080 Cl
HETATM   14  C11   D T 262       6.993   1.137 -11.379  1.00 34.31     0.059 A 
HETATM   15  C12   D T 262       7.924   1.214 -10.311  1.00 35.02     0.013 A 
HETATM   16 CL15   D T 262       7.490   1.511 -12.940  1.00 38.98    -0.082 Cl
HETATM   17  C13   D T 262       7.513   0.900  -8.999  1.00 36.05     0.026 A 
ENDBRANCH   1  10
TORSDOF 2
ENDMDL
MODEL 2
REMARK VINA RESULT:    -7.469      1.311      5.879
REMARK INTER + INTRA:          -8.706
REMARK INTER:                  -8.523
REMARK INTRA:                  -0.183
REMARK UNBOUND:                -0.364
REMARK  2 active torsions:
REMARK  status: ('A' for Active; 'I' for Inactive)
REMARK    1  A    between atoms: C5_4  and  O7_13 
REMARK    2  A    between atoms: C8_10  and  O7_13 
ROOT
HETATM    1  O7    D T 262       5.415   0.213  -7.766  1.00 33.42    -0.304 OA
ENDROOT
BRANCH   1   2
HETATM    2  C5    D T 262       5.939   0.492  -9.038  1.00 32.62     0.125 A 
HETATM    3  C6    D T 262       5.061   0.538 -10.136  1.00 29.39     0.154 A 
HETATM    4  C1    D T 262       5.562   0.822 -11.448  1.00 31.49     0.041 A 
HETATM    5  O17   D T 262       3.735   0.304  -9.904  1.00 29.04    -0.188 OA
HETATM    6  C2    D T 262       6.961   1.058 -11.638  1.00 34.86     0.060 A 
HETATM    7  C3    D T 262       7.843   1.007 -10.527  1.00 33.50     0.014 A 
HETATM    8 CL14   D T 262       7.570   1.393 -13.173  1.00 29.54    -0.082 Cl
HETATM    9  C4    D T 262       7.342   0.727  -9.219  1.00 31.24     0.028 A 
ENDBRANCH   1   2
BRANCH   1  10
HETATM   10  C8    D T 262       4.860   1.246  -7.006  1.00 31.42     0.111 A 
HETATM   11  C9    D T 262       4.031   0.882  -5.873  1.00 37.59     0.081 A 
HETATM   12  C10   D T 262       3.444   1.894  -5.073  1.00 33.67     0.025 A 
HETATM   13 CL16   D T 262       3.731  -0.760  -5.473  1.00 45.56    -0.080 Cl
HETATM   14  C11   D T 262       3.699   3.272  -5.416  1.00 34.31     0.059 A 
HETATM   15  C12   D T 262       4.510   3.637  -6.522  1.00 35.02     0.013 A 
HETATM   16 CL15   D T 262       3.004   4.473  -4.468  1.00 38.98    -0.082 Cl
HETATM   17  C13   D T 262       5.095   2.633  -7.323  1.00 36.05     0.026 A 
ENDBRANCH   1  10
TORSDOF 2
ENDMDL
MODEL 3
REMARK VINA RESULT:    -7.413      1.277      5.984
REMARK INTER + INTRA:          -8.644
REMARK INTER:                  -8.260
REMARK INTRA:                  -0.383
REMARK UNBOUND:                -0.364
REMARK  2 active torsions:
REMARK  status: ('A' for Active; 'I' for Inactive)
REMARK    1  A    between atoms: C5_4  and  O7_13 
REMARK    2  A    between atoms: C8_10  and  O7_13 
ROOT
HETATM    1  O7    D T 262       5.760   0.479  -7.282  1.00 33.42    -0.304 OA
ENDROOT
BRANCH   1   2
HETATM    2  C5    D T 262       6.120   0.703  -8.621  1.00 32.62     0.125 A 
HETATM    3  C6    D T 262       7.437   1.103  -8.909  1.00 29.39     0.154 A 
HETATM    4  C1    D T 262       7.838   1.339 -10.264  1.00 31.49     0.041 A 
HETATM    5  O17   D T 262       8.302   1.256  -7.862  1.00 29.04    -0.188 OA
HETATM    6  C2    D T 262       6.893   1.167 -11.325  1.00 34.86     0.060 A 
HETATM    7  C3    D T 262       5.564   0.765 -11.027  1.00 33.50     0.014 A 
HETATM    8 CL14   D T 262       7.345   1.440 -12.924  1.00 29.54    -0.082 Cl
HETATM    9  C4    D T 262       5.165   0.528  -9.676  1.00 31.24     0.028 A 
ENDBRANCH   1   2
BRANCH   1  10
HETATM   10  C8    D T 262       5.011   1.441  -6.598  1.00 31.42     0.111 A 
HETATM   11  C9    D T 262       4.023   0.976  -5.644  1.00 37.59     0.081 A 
HETATM   12  C10   D T 262       3.238   1.914  -4.927  1.00 33.67     0.025 A 
HETATM   13 CL16   D T 262       3.771  -0.697  -5.359  1.00 45.56    -0.080 Cl
HETATM   14  C11   D T 262       3.455   3.319  -5.173  1.00 34.31     0.059 A 
HETATM   15  C12   D T 262       4.420   3.782  -6.105  1.00 35.02     0.013 A 
HETATM   16 CL15   D T 262       2.524   4.432  -4.324  1.00 38.98    -0.082 Cl
HETATM   17  C13   D T 262       5.203   2.853  -6.822  1.00 36.05     0.026 A 
ENDBRANCH   1  10
TORSDOF 2
ENDMDL
MODEL 4
REMARK VINA RESULT:    -7.408      3.156      3.536
REMARK INTER + INTRA:          -8.638
REMARK INTER:                  -8.180
REMARK INTRA:                  -0.458
REMARK UNBOUND:                -0.364
REMARK  2 active torsions:
REMARK  status: ('A' for Active; 'I' for Inactive)
REMARK    1  A    between atoms: C5_4  and  O7_13 
REMARK    2  A    between atoms: C8_10  and  O7_13 
ROOT
HETATM    1  O7    D T 262       6.162   1.513  -7.755  1.00 33.42    -0.304 OA
ENDROOT
BRANCH   1   2
HETATM    2  C5    D T 262       7.188   1.564  -6.797  1.00 32.62     0.125 A 
HETATM    3  C6    D T 262       7.197   0.609  -5.765  1.00 29.39     0.154 A 
HETATM    4  C1    D T 262       8.230   0.631  -4.772  1.00 31.49     0.041 A 
HETATM    5  O17   D T 262       6.198  -0.324  -5.747  1.00 29.04    -0.188 OA
HETATM    6  C2    D T 262       9.252   1.631  -4.833  1.00 34.86     0.060 A 
HETATM    7  C3    D T 262       9.236   2.594  -5.877  1.00 33.50     0.014 A 
HETATM    8 CL14   D T 262      10.475   1.675  -3.675  1.00 29.54    -0.082 Cl
HETATM    9  C4    D T 262       8.207   2.569  -6.867  1.00 31.24     0.028 A 
ENDBRANCH   1   2
BRANCH   1  10
HETATM   10  C8    D T 262       6.487   1.423  -9.111  1.00 31.42     0.111 A 
HETATM   11  C9    D T 262       5.902   2.397 -10.012  1.00 37.59     0.081 A 
HETATM   12  C10   D T 262       6.201   2.347 -11.397  1.00 33.67     0.025 A 
HETATM   13 CL16   D T 262       4.842   3.621  -9.443  1.00 45.56    -0.080 Cl
HETATM   14  C11   D T 262       7.092   1.314 -11.868  1.00 34.31     0.059 A 
HETATM   15  C12   D T 262       7.669   0.357 -10.993  1.00 35.02     0.013 A 
HETATM   16 CL15   D T 262       7.446   1.253 -13.510  1.00 38.98    -0.082 Cl
HETATM   17  C13   D T 262       7.374   0.403  -9.614  1.00 36.05     0.026 A 
ENDBRANCH   1  10
TORSDOF 2
ENDMDL
MODEL 5
REMARK VINA RESULT:    -7.404      9.175     12.154
REMARK INTER + INTRA:          -8.634
REMARK INTER:                  -8.170
REMARK INTRA:                  -0.464
REMARK UNBOUND:                -0.364
REMARK  2 active torsions:
REMARK  status: ('A' for Active; 'I' for Inactive)
REMARK    1  A    between atoms: C5_4  and  O7_13 
REMARK    2  A    between atoms: C8_10  and  O7_13 
ROOT
HETATM    1  O7    D T 262       5.921   5.857   2.950  1.00 33.42    -0.304 OA
ENDROOT
BRANCH   1   2
HETATM    2  C5    D T 262       5.747   6.043   1.569  1.00 32.62     0.125 A 
HETATM    3  C6    D T 262       6.011   7.310   1.018  1.00 29.39     0.154 A 
HETATM    4  C1    D T 262       5.845   7.534  -0.387  1.00 31.49     0.041 A 
HETATM    5  O17   D T 262       6.423   8.301   1.864  1.00 29.04    -0.188 OA
HETATM    6  C2    D T 262       5.408   6.462  -1.230  1.00 34.86     0.060 A 
HETATM    7  C3    D T 262       5.141   5.186  -0.668  1.00 33.50     0.014 A 
HETATM    8 CL14   D T 262       5.207   6.705  -2.885  1.00 29.54    -0.082 Cl
HETATM    9  C4    D T 262       5.309   4.963   0.733  1.00 31.24     0.028 A 
ENDBRANCH   1   2
BRANCH   1  10
HETATM   10  C8    D T 262       6.886   4.957   3.410  1.00 31.42     0.111 A 
HETATM   11  C9    D T 262       6.494   4.014   4.439  1.00 37.59     0.081 A 
HETATM   12  C10   D T 262       7.438   3.081   4.938  1.00 33.67     0.025 A 
HETATM   13 CL16   D T 262       4.902   3.996   5.080  1.00 45.56    -0.080 Cl
HETATM   14  C11   D T 262       8.775   3.102   4.395  1.00 34.31     0.059 A 
HETATM   15  C12   D T 262       9.166   4.022   3.387  1.00 35.02     0.013 A 
HETATM   16 CL15   D T 262       9.895   1.998   4.987  1.00 38.98    -0.082 Cl
HETATM   17  C13   D T 262       8.231   4.952   2.887  1.00 36.05     0.026 A 
ENDBRANCH   1  10
TORSDOF 2
ENDMDL
MODEL 6
REMARK VINA RESULT:    -7.395      1.450      1.892
REMARK INTER + INTRA:          -8.623
REMARK INTER:                  -8.228
REMARK INTRA:                  -0.395
REMARK UNBOUND:                -0.364
REMARK  2 active torsions:
REMARK  status: ('A' for Active; 'I' for Inactive)
REMARK    1  A    between atoms: C5_4  and  O7_13 
REMARK    2  A    between atoms: C8_10  and  O7_13 
ROOT
HETATM    1  O7    D T 262       5.472   0.406  -6.930  1.00 33.42    -0.304 OA
ENDROOT
BRANCH   1   2
HETATM    2  C5    D T 262       4.762   1.400  -6.237  1.00 32.62     0.125 A 
HETATM    3  C6    D T 262       3.877   1.011  -5.216  1.00 29.39     0.154 A 
HETATM    4  C1    D T 262       3.138   1.999  -4.488  1.00 31.49     0.041 A 
HETATM    5  O17   D T 262       3.753  -0.324  -4.952  1.00 29.04    -0.188 OA
HETATM    6  C2    D T 262       3.302   3.386  -4.806  1.00 34.86     0.060 A 
HETATM    7  C3    D T 262       4.195   3.772  -5.840  1.00 33.50     0.014 A 
HETATM    8 CL14   D T 262       2.441   4.563  -3.962  1.00 29.54    -0.082 Cl
HETATM    9  C4    D T 262       4.933   2.786  -6.563  1.00 31.24     0.028 A 
ENDBRANCH   1   2
BRANCH   1  10
HETATM   10  C8    D T 262       5.815   0.608  -8.270  1.00 31.42     0.111 A 
HETATM   11  C9    D T 262       7.175   1.012  -8.566  1.00 37.59     0.081 A 
HETATM   12  C10   D T 262       7.570   1.232  -9.910  1.00 33.67     0.025 A 
HETATM   13 CL16   D T 262       8.334   1.240  -7.320  1.00 45.56    -0.080 Cl
HETATM   14  C11   D T 262       6.590   1.039 -10.952  1.00 34.31     0.059 A 
HETATM   15  C12   D T 262       5.257   0.643 -10.670  1.00 35.02     0.013 A 
HETATM   16 CL15   D T 262       7.057   1.300 -12.545  1.00 38.98    -0.082 Cl
HETATM   17  C13   D T 262       4.859   0.425  -9.334  1.00 36.05     0.026 A 
ENDBRANCH   1  10
TORSDOF 2
ENDMDL
MODEL 7
REMARK VINA RESULT:    -7.184      2.114      6.195
REMARK INTER + INTRA:          -8.388
REMARK INTER:                  -7.924
REMARK INTRA:                  -0.464
REMARK UNBOUND:                -0.364
REMARK  2 active torsions:
REMARK  status: ('A' for Active; 'I' for Inactive)
REMARK    1  A    between atoms: C5_4  and  O7_13 
REMARK    2  A    between atoms: C8_10  and  O7_13 
ROOT
HETATM    1  O7    D T 262       5.768   3.205  -6.725  1.00 33.42    -0.304 OA
ENDROOT
BRANCH   1   2
HETATM    2  C5    D T 262       6.035   2.747  -8.025  1.00 32.62     0.125 A 
HETATM    3  C6    D T 262       7.364   2.447  -8.377  1.00 29.39     0.154 A 
HETATM    4  C1    D T 262       7.672   1.976  -9.694  1.00 31.49     0.041 A 
HETATM    5  O17   D T 262       8.331   2.622  -7.427  1.00 29.04    -0.188 OA
HETATM    6  C2    D T 262       6.622   1.812 -10.654  1.00 34.86     0.060 A 
HETATM    7  C3    D T 262       5.283   2.119 -10.294  1.00 33.50     0.014 A 
HETATM    8 CL14   D T 262       6.964   1.260 -12.208  1.00 29.54    -0.082 Cl
HETATM    9  C4    D T 262       4.977   2.586  -8.979  1.00 31.24     0.028 A 
ENDBRANCH   1   2
BRANCH   1  10
HETATM   10  C8    D T 262       5.157   2.351  -5.804  1.00 31.42     0.111 A 
HETATM   11  C9    D T 262       3.997   2.846  -5.089  1.00 37.59     0.081 A 
HETATM   12  C10   D T 262       3.343   2.017  -4.142  1.00 33.67     0.025 A 
HETATM   13 CL16   D T 262       3.389   4.429  -5.355  1.00 45.56    -0.080 Cl
HETATM   14  C11   D T 262       3.860   0.688  -3.924  1.00 34.31     0.059 A 
HETATM   15  C12   D T 262       4.995   0.195  -4.620  1.00 35.02     0.013 A 
HETATM   16 CL15   D T 262       3.086  -0.296  -2.802  1.00 38.98    -0.082 Cl
HETATM   17  C13   D T 262       5.650   1.017  -5.561  1.00 36.05     0.026 A 
ENDBRANCH   1  10
TORSDOF 2
ENDMDL
MODEL 8
REMARK VINA RESULT:    -7.071      2.176      2.706
REMARK INTER + INTRA:          -8.262
REMARK INTER:                  -7.734
REMARK INTRA:                  -0.528
REMARK UNBOUND:                -0.364
REMARK  2 active torsions:
REMARK  status: ('A' for Active; 'I' for Inactive)
REMARK    1  A    between atoms: C5_4  and  O7_13 
REMARK    2  A    between atoms: C8_10  and  O7_13 
ROOT
HETATM    1  O7    D T 262       5.806   0.802  -5.142  1.00 33.42    -0.304 OA
ENDROOT
BRANCH   1   2
HETATM    2  C5    D T 262       5.028   1.874  -4.676  1.00 32.62     0.125 A 
HETATM    3  C6    D T 262       5.594   2.767  -3.747  1.00 29.39     0.154 A 
HETATM    4  C1    D T 262       4.829   3.872  -3.253  1.00 31.49     0.041 A 
HETATM    5  O17   D T 262       6.879   2.539  -3.343  1.00 29.04    -0.188 OA
HETATM    6  C2    D T 262       3.484   4.065  -3.706  1.00 34.86     0.060 A 
HETATM    7  C3    D T 262       2.918   3.159  -4.641  1.00 33.50     0.014 A 
HETATM    8 CL14   D T 262       2.568   5.358  -3.136  1.00 29.54    -0.082 Cl
HETATM    9  C4    D T 262       3.683   2.059  -5.136  1.00 31.24     0.028 A 
ENDBRANCH   1   2
BRANCH   1  10
HETATM   10  C8    D T 262       6.227   0.782  -6.474  1.00 31.42     0.111 A 
HETATM   11  C9    D T 262       5.621  -0.193  -7.360  1.00 37.59     0.081 A 
HETATM   12  C10   D T 262       6.016  -0.253  -8.720  1.00 33.67     0.025 A 
HETATM   13 CL16   D T 262       4.427  -1.292  -6.800  1.00 45.56    -0.080 Cl
HETATM   14  C11   D T 262       7.021   0.674  -9.183  1.00 34.31     0.059 A 
HETATM   15  C12   D T 262       7.619   1.631  -8.322  1.00 35.02     0.013 A 
HETATM   16 CL15   D T 262       7.490   0.602 -10.795  1.00 38.98    -0.082 Cl
HETATM   17  C13   D T 262       7.230   1.694  -6.968  1.00 36.05     0.026 A 
ENDBRANCH   1  10
TORSDOF 2
ENDMDL
