MODEL 1
REMARK VINA RESULT:    -7.778      0.000      0.000
REMARK INTER + INTRA:          -9.139
REMARK INTER:                  -8.688
REMARK INTRA:                  -0.451
REMARK UNBOUND:                -0.451
REMARK  2 active torsions:
REMARK  status: ('A' for Active; 'I' for Inactive)
REMARK    1  A    between atoms: C5_4  and  O7_13 
REMARK    2  A    between atoms: C8_10  and  O7_13 
ROOT
HETATM    1  O7    D T 502       5.815   0.200  -7.600  1.00 50.24    -0.304 OA
ENDROOT
BRANCH   1   2
HETATM    2  C5    D T 502       5.058   1.038  -6.843  1.00 46.69     0.125 A 
HETATM    3  C6    D T 502       3.912   0.474  -6.085  1.00 45.87     0.154 A 
HETATM    4  C1    D T 502       3.147   1.326  -5.294  1.00 45.29     0.041 A 
HETATM    5  O17   D T 502       3.634  -0.847  -6.200  1.00 43.35    -0.188 OA
HETATM    6  C2    D T 502       3.495   2.684  -5.257  1.00 46.78     0.060 A 
HETATM    7  C3    D T 502       4.566   3.229  -5.966  1.00 44.62     0.014 A 
HETATM    8 CL14   D T 502       2.518   3.797  -4.262  1.00 50.36    -0.082 Cl
HETATM    9  C4    D T 502       5.348   2.396  -6.752  1.00 46.09     0.028 A 
ENDBRANCH   1   2
BRANCH   1  10
HETATM   10  C8    D T 502       6.239   0.517  -8.849  1.00 57.34     0.111 A 
HETATM   11  C9    D T 502       5.271   0.498  -9.976  1.00 60.97     0.081 A 
HETATM   12  C10   D T 502       5.687   0.809 -11.253  1.00 61.34     0.025 A 
HETATM   13 CL16   D T 502       3.549   0.062  -9.761  1.00 70.84    -0.080 Cl
HETATM   14  C11   D T 502       7.004   1.133 -11.460  1.00 60.50     0.059 A 
HETATM   15  C12   D T 502       7.936   1.163 -10.427  1.00 60.51     0.013 A 
HETATM   16 CL15   D T 502       7.458   1.516 -13.128  1.00 63.55    -0.082 Cl
HETATM   17  C13   D T 502       7.561   0.859  -9.114  1.00 58.81     0.026 A 
ENDBRANCH   1  10
TORSDOF 2
ENDMDL
MODEL 2
REMARK VINA RESULT:    -7.528      1.219      5.849
REMARK INTER + INTRA:          -8.860
REMARK INTER:                  -8.614
REMARK INTRA:                  -0.246
REMARK UNBOUND:                -0.451
REMARK  2 active torsions:
REMARK  status: ('A' for Active; 'I' for Inactive)
REMARK    1  A    between atoms: C5_4  and  O7_13 
REMARK    2  A    between atoms: C8_10  and  O7_13 
ROOT
HETATM    1  O7    D T 502       5.874   0.285  -7.758  1.00 50.24    -0.304 OA
ENDROOT
BRANCH   1   2
HETATM    2  C5    D T 502       6.295   0.561  -9.021  1.00 46.69     0.125 A 
HETATM    3  C6    D T 502       5.295   0.571 -10.119  1.00 45.87     0.154 A 
HETATM    4  C1    D T 502       5.719   0.872 -11.409  1.00 45.29     0.041 A 
HETATM    5  O17   D T 502       4.005   0.269  -9.835  1.00 43.35    -0.188 OA
HETATM    6  C2    D T 502       7.080   1.146 -11.611  1.00 46.78     0.060 A 
HETATM    7  C3    D T 502       8.031   1.137 -10.591  1.00 44.62     0.014 A 
HETATM    8 CL14   D T 502       7.649   1.519 -13.261  1.00 50.36    -0.082 Cl
HETATM    9  C4    D T 502       7.628   0.849  -9.296  1.00 46.09     0.028 A 
ENDBRANCH   1   2
BRANCH   1  10
HETATM   10  C8    D T 502       5.161   1.165  -7.011  1.00 57.34     0.111 A 
HETATM   11  C9    D T 502       4.089   0.661  -6.114  1.00 60.97     0.081 A 
HETATM   12  C10   D T 502       3.349   1.543  -5.356  1.00 61.34     0.025 A 
HETATM   13 CL16   D T 502       3.682  -1.076  -5.977  1.00 70.84    -0.080 Cl
HETATM   14  C11   D T 502       3.620   2.885  -5.446  1.00 60.50     0.059 A 
HETATM   15  C12   D T 502       4.619   3.390  -6.273  1.00 60.51     0.013 A 
HETATM   16 CL15   D T 502       2.624   3.950  -4.442  1.00 63.55    -0.082 Cl
HETATM   17  C13   D T 502       5.399   2.535  -7.060  1.00 58.81     0.026 A 
ENDBRANCH   1  10
TORSDOF 2
ENDMDL
MODEL 3
REMARK VINA RESULT:    -7.293      1.589      2.003
REMARK INTER + INTRA:          -8.597
REMARK INTER:                  -8.199
REMARK INTRA:                  -0.398
REMARK UNBOUND:                -0.451
REMARK  2 active torsions:
REMARK  status: ('A' for Active; 'I' for Inactive)
REMARK    1  A    between atoms: C5_4  and  O7_13 
REMARK    2  A    between atoms: C8_10  and  O7_13 
ROOT
HETATM    1  O7    D T 502       5.293   0.508  -6.912  1.00 50.24    -0.304 OA
ENDROOT
BRANCH   1   2
HETATM    2  C5    D T 502       4.641   1.485  -6.228  1.00 46.69     0.125 A 
HETATM    3  C6    D T 502       3.721   1.093  -5.130  1.00 45.87     0.154 A 
HETATM    4  C1    D T 502       3.067   2.091  -4.414  1.00 45.29     0.041 A 
HETATM    5  O17   D T 502       3.532  -0.223  -4.870  1.00 43.35    -0.188 OA
HETATM    6  C2    D T 502       3.305   3.426  -4.774  1.00 46.78     0.060 A 
HETATM    7  C3    D T 502       4.163   3.810  -5.804  1.00 44.62     0.014 A 
HETATM    8 CL14   D T 502       2.465   4.722  -3.880  1.00 50.36    -0.082 Cl
HETATM    9  C4    D T 502       4.833   2.831  -6.523  1.00 46.09     0.028 A 
ENDBRANCH   1   2
BRANCH   1  10
HETATM   10  C8    D T 502       5.670   0.643  -8.209  1.00 57.34     0.111 A 
HETATM   11  C9    D T 502       7.081   0.981  -8.529  1.00 60.97     0.081 A 
HETATM   12  C10   D T 502       7.477   1.132  -9.840  1.00 61.34     0.025 A 
HETATM   13 CL16   D T 502       8.323   1.231  -7.266  1.00 70.84    -0.080 Cl
HETATM   14  C11   D T 502       6.549   0.964 -10.837  1.00 60.50     0.059 A 
HETATM   15  C12   D T 502       5.221   0.644 -10.572  1.00 60.51     0.013 A 
HETATM   16 CL15   D T 502       7.138   1.177 -12.493  1.00 63.55    -0.082 Cl
HETATM   17  C13   D T 502       4.771   0.479  -9.258  1.00 58.81     0.026 A 
ENDBRANCH   1  10
TORSDOF 2
ENDMDL
MODEL 4
REMARK VINA RESULT:    -7.206      2.521      6.299
REMARK INTER + INTRA:          -8.500
REMARK INTER:                  -8.008
REMARK INTRA:                  -0.492
REMARK UNBOUND:                -0.451
REMARK  2 active torsions:
REMARK  status: ('A' for Active; 'I' for Inactive)
REMARK    1  A    between atoms: C5_4  and  O7_13 
REMARK    2  A    between atoms: C8_10  and  O7_13 
ROOT
HETATM    1  O7    D T 502       6.118   3.059  -7.250  1.00 50.24    -0.304 OA
ENDROOT
BRANCH   1   2
HETATM    2  C5    D T 502       6.433   2.603  -8.491  1.00 46.69     0.125 A 
HETATM    3  C6    D T 502       5.604   3.041  -9.644  1.00 45.87     0.154 A 
HETATM    4  C1    D T 502       5.936   2.592 -10.918  1.00 45.29     0.041 A 
HETATM    5  O17   D T 502       4.540   3.849  -9.417  1.00 43.35    -0.188 OA
HETATM    6  C2    D T 502       7.040   1.736 -11.050  1.00 46.78     0.060 A 
HETATM    7  C3    D T 502       7.825   1.314  -9.978  1.00 44.62     0.014 A 
HETATM    8 CL14   D T 502       7.474   1.135 -12.673  1.00 50.36    -0.082 Cl
HETATM    9  C4    D T 502       7.518   1.758  -8.701  1.00 46.09     0.028 A 
ENDBRANCH   1   2
BRANCH   1  10
HETATM   10  C8    D T 502       5.454   2.307  -6.336  1.00 57.34     0.111 A 
HETATM   11  C9    D T 502       6.176   1.809  -5.137  1.00 60.97     0.081 A 
HETATM   12  C10   D T 502       5.519   1.035  -4.204  1.00 61.34     0.025 A 
HETATM   13 CL16   D T 502       7.907   2.151  -4.841  1.00 70.84    -0.080 Cl
HETATM   14  C11   D T 502       4.195   0.738  -4.404  1.00 60.50     0.059 A 
HETATM   15  C12   D T 502       3.488   1.191  -5.514  1.00 60.51     0.013 A 
HETATM   16 CL15   D T 502       3.424  -0.262  -3.162  1.00 63.55    -0.082 Cl
HETATM   17  C13   D T 502       4.110   1.981  -6.487  1.00 58.81     0.026 A 
ENDBRANCH   1  10
TORSDOF 2
ENDMDL
MODEL 5
REMARK VINA RESULT:    -7.146      2.651      3.205
REMARK INTER + INTRA:          -8.433
REMARK INTER:                  -8.020
REMARK INTRA:                  -0.413
REMARK UNBOUND:                -0.451
REMARK  2 active torsions:
REMARK  status: ('A' for Active; 'I' for Inactive)
REMARK    1  A    between atoms: C5_4  and  O7_13 
REMARK    2  A    between atoms: C8_10  and  O7_13 
ROOT
HETATM    1  O7    D T 502       5.137   3.331  -7.075  1.00 50.24    -0.304 OA
ENDROOT
BRANCH   1   2
HETATM    2  C5    D T 502       4.699   2.466  -6.122  1.00 46.69     0.125 A 
HETATM    3  C6    D T 502       4.929   2.803  -4.694  1.00 45.87     0.154 A 
HETATM    4  C1    D T 502       4.465   1.930  -3.715  1.00 45.29     0.041 A 
HETATM    5  O17   D T 502       5.600   3.940  -4.387  1.00 43.35    -0.188 OA
HETATM    6  C2    D T 502       3.806   0.764  -4.128  1.00 46.78     0.060 A 
HETATM    7  C3    D T 502       3.585   0.432  -5.465  1.00 44.62     0.014 A 
HETATM    8 CL14   D T 502       3.216  -0.378  -2.891  1.00 50.36    -0.082 Cl
HETATM    9  C4    D T 502       4.030   1.293  -6.457  1.00 46.09     0.028 A 
ENDBRANCH   1   2
BRANCH   1  10
HETATM   10  C8    D T 502       5.662   2.919  -8.257  1.00 57.34     0.111 A 
HETATM   11  C9    D T 502       7.077   2.469  -8.310  1.00 60.97     0.081 A 
HETATM   12  C10   D T 502       7.628   2.057  -9.504  1.00 61.34     0.025 A 
HETATM   13 CL16   D T 502       8.139   2.452  -6.870  1.00 70.84    -0.080 Cl
HETATM   14  C11   D T 502       6.850   2.071 -10.634  1.00 60.50     0.059 A 
HETATM   15  C12   D T 502       5.521   2.483 -10.618  1.00 60.51     0.013 A 
HETATM   16 CL15   D T 502       7.633   1.529 -12.127  1.00 63.55    -0.082 Cl
HETATM   17  C13   D T 502       4.915   2.908  -9.430  1.00 58.81     0.026 A 
ENDBRANCH   1  10
TORSDOF 2
ENDMDL
MODEL 6
REMARK VINA RESULT:    -7.136      2.066      2.448
REMARK INTER + INTRA:          -8.421
REMARK INTER:                  -8.185
REMARK INTRA:                  -0.236
REMARK UNBOUND:                -0.451
REMARK  2 active torsions:
REMARK  status: ('A' for Active; 'I' for Inactive)
REMARK    1  A    between atoms: C5_4  and  O7_13 
REMARK    2  A    between atoms: C8_10  and  O7_13 
ROOT
HETATM    1  O7    D T 502       4.419   2.280  -7.578  1.00 50.24    -0.304 OA
ENDROOT
BRANCH   1   2
HETATM    2  C5    D T 502       4.135   1.606  -6.432  1.00 46.69     0.125 A 
HETATM    3  C6    D T 502       3.656   2.374  -5.254  1.00 45.87     0.154 A 
HETATM    4  C1    D T 502       3.346   1.685  -4.085  1.00 45.29     0.041 A 
HETATM    5  O17   D T 502       3.553   3.722  -5.346  1.00 43.35    -0.188 OA
HETATM    6  C2    D T 502       3.510   0.292  -4.076  1.00 46.78     0.060 A 
HETATM    7  C3    D T 502       3.961  -0.442  -5.172  1.00 44.62     0.014 A 
HETATM    8 CL14   D T 502       3.134  -0.610  -2.583  1.00 50.36    -0.082 Cl
HETATM    9  C4    D T 502       4.266   0.224  -6.350  1.00 46.09     0.028 A 
ENDBRANCH   1   2
BRANCH   1  10
HETATM   10  C8    D T 502       5.382   1.882  -8.447  1.00 57.34     0.111 A 
HETATM   11  C9    D T 502       5.049   0.892  -9.503  1.00 60.97     0.081 A 
HETATM   12  C10   D T 502       6.019   0.470 -10.387  1.00 61.34     0.025 A 
HETATM   13 CL16   D T 502       3.417   0.182  -9.681  1.00 70.84    -0.080 Cl
HETATM   14  C11   D T 502       7.288   0.979 -10.273  1.00 60.50     0.059 A 
HETATM   15  C12   D T 502       7.633   1.910  -9.297  1.00 60.51     0.013 A 
HETATM   16 CL15   D T 502       8.475   0.384 -11.445  1.00 63.55    -0.082 Cl
HETATM   17  C13   D T 502       6.683   2.371  -8.378  1.00 58.81     0.026 A 
ENDBRANCH   1  10
TORSDOF 2
ENDMDL
MODEL 7
REMARK VINA RESULT:    -7.103      2.139      2.379
REMARK INTER + INTRA:          -8.385
REMARK INTER:                  -7.910
REMARK INTRA:                  -0.475
REMARK UNBOUND:                -0.451
REMARK  2 active torsions:
REMARK  status: ('A' for Active; 'I' for Inactive)
REMARK    1  A    between atoms: C5_4  and  O7_13 
REMARK    2  A    between atoms: C8_10  and  O7_13 
ROOT
HETATM    1  O7    D T 502       4.048   1.618  -6.968  1.00 50.24    -0.304 OA
ENDROOT
BRANCH   1   2
HETATM    2  C5    D T 502       4.392   2.096  -5.743  1.00 46.69     0.125 A 
HETATM    3  C6    D T 502       4.323   1.180  -4.576  1.00 45.87     0.154 A 
HETATM    4  C1    D T 502       4.693   1.660  -3.324  1.00 45.29     0.041 A 
HETATM    5  O17   D T 502       3.883  -0.088  -4.762  1.00 43.35    -0.188 OA
HETATM    6  C2    D T 502       5.110   2.996  -3.224  1.00 46.78     0.060 A 
HETATM    7  C3    D T 502       5.177   3.869  -4.310  1.00 44.62     0.014 A 
HETATM    8 CL14   D T 502       5.574   3.637  -1.626  1.00 50.36    -0.082 Cl
HETATM    9  C4    D T 502       4.822   3.408  -5.569  1.00 46.09     0.028 A 
ENDBRANCH   1   2
BRANCH   1  10
HETATM   10  C8    D T 502       4.963   1.302  -7.919  1.00 57.34     0.111 A 
HETATM   11  C9    D T 502       5.297   2.296  -8.971  1.00 60.97     0.081 A 
HETATM   12  C10   D T 502       6.218   1.986  -9.950  1.00 61.34     0.025 A 
HETATM   13 CL16   D T 502       4.533   3.911  -9.051  1.00 70.84    -0.080 Cl
HETATM   14  C11   D T 502       6.814   0.751  -9.932  1.00 60.50     0.059 A 
HETATM   15  C12   D T 502       6.526  -0.203  -8.959  1.00 60.51     0.013 A 
HETATM   16 CL15   D T 502       7.982   0.430 -11.224  1.00 63.55    -0.082 Cl
HETATM   17  C13   D T 502       5.601   0.066  -7.944  1.00 58.81     0.026 A 
ENDBRANCH   1  10
TORSDOF 2
ENDMDL
MODEL 8
REMARK VINA RESULT:    -7.028      2.263      2.930
REMARK INTER + INTRA:          -8.301
REMARK INTER:                  -7.772
REMARK INTRA:                  -0.529
REMARK UNBOUND:                -0.451
REMARK  2 active torsions:
REMARK  status: ('A' for Active; 'I' for Inactive)
REMARK    1  A    between atoms: C5_4  and  O7_13 
REMARK    2  A    between atoms: C8_10  and  O7_13 
ROOT
HETATM    1  O7    D T 502       5.815   0.900  -5.158  1.00 50.24    -0.304 OA
ENDROOT
BRANCH   1   2
HETATM    2  C5    D T 502       5.044   1.910  -4.675  1.00 46.69     0.125 A 
HETATM    3  C6    D T 502       5.644   2.866  -3.710  1.00 45.87     0.154 A 
HETATM    4  C1    D T 502       4.863   3.912  -3.228  1.00 45.29     0.041 A 
HETATM    5  O17   D T 502       6.927   2.681  -3.313  1.00 43.35    -0.188 OA
HETATM    6  C2    D T 502       3.537   4.007  -3.675  1.00 46.78     0.060 A 
HETATM    7  C3    D T 502       2.958   3.115  -4.578  1.00 44.62     0.014 A 
HETATM    8 CL14   D T 502       2.513   5.331  -3.058  1.00 50.36    -0.082 Cl
HETATM    9  C4    D T 502       3.723   2.071  -5.078  1.00 46.09     0.028 A 
ENDBRANCH   1   2
BRANCH   1  10
HETATM   10  C8    D T 502       6.226   0.841  -6.450  1.00 57.34     0.111 A 
HETATM   11  C9    D T 502       5.669  -0.204  -7.347  1.00 60.97     0.081 A 
HETATM   12  C10   D T 502       6.083  -0.283  -8.659  1.00 61.34     0.025 A 
HETATM   13 CL16   D T 502       4.472  -1.413  -6.793  1.00 70.84    -0.080 Cl
HETATM   14  C11   D T 502       7.013   0.616  -9.117  1.00 60.50     0.059 A 
HETATM   15  C12   D T 502       7.552   1.610  -8.305  1.00 60.51     0.013 A 
HETATM   16 CL15   D T 502       7.493   0.446 -10.813  1.00 63.55    -0.082 Cl
HETATM   17  C13   D T 502       7.161   1.732  -6.966  1.00 58.81     0.026 A 
ENDBRANCH   1  10
TORSDOF 2
ENDMDL
MODEL 9
REMARK VINA RESULT:    -6.906      2.505      2.991
REMARK INTER + INTRA:          -8.165
REMARK INTER:                  -7.639
REMARK INTRA:                  -0.526
REMARK UNBOUND:                -0.451
REMARK  2 active torsions:
REMARK  status: ('A' for Active; 'I' for Inactive)
REMARK    1  A    between atoms: C5_4  and  O7_13 
REMARK    2  A    between atoms: C8_10  and  O7_13 
ROOT
HETATM    1  O7    D T 502       4.185   1.938  -6.750  1.00 50.24    -0.304 OA
ENDROOT
BRANCH   1   2
HETATM    2  C5    D T 502       4.590   2.468  -5.565  1.00 46.69     0.125 A 
HETATM    3  C6    D T 502       4.285   3.893  -5.280  1.00 45.87     0.154 A 
HETATM    4  C1    D T 502       4.680   4.434  -4.061  1.00 45.29     0.041 A 
HETATM    5  O17   D T 502       3.647   4.629  -6.223  1.00 43.35    -0.188 OA
HETATM    6  C2    D T 502       5.359   3.601  -3.158  1.00 46.78     0.060 A 
HETATM    7  C3    D T 502       5.655   2.262  -3.412  1.00 44.62     0.014 A 
HETATM    8 CL14   D T 502       5.889   4.277  -1.595  1.00 50.36    -0.082 Cl
HETATM    9  C4    D T 502       5.261   1.701  -4.618  1.00 46.09     0.028 A 
ENDBRANCH   1   2
BRANCH   1  10
HETATM   10  C8    D T 502       5.046   1.646  -7.758  1.00 57.34     0.111 A 
HETATM   11  C9    D T 502       5.435   0.233  -7.999  1.00 60.97     0.081 A 
HETATM   12  C10   D T 502       6.316  -0.079  -9.013  1.00 61.34     0.025 A 
HETATM   13 CL16   D T 502       4.822  -1.121  -7.003  1.00 70.84    -0.080 Cl
HETATM   14  C11   D T 502       6.820   0.934  -9.788  1.00 60.50     0.059 A 
HETATM   15  C12   D T 502       6.474   2.267  -9.591  1.00 60.51     0.013 A 
HETATM   16 CL15   D T 502       7.946   0.450 -11.067  1.00 63.55    -0.082 Cl
HETATM   17  C13   D T 502       5.582   2.634  -8.577  1.00 58.81     0.026 A 
ENDBRANCH   1  10
TORSDOF 2
ENDMDL
