MODEL 1
REMARK VINA RESULT:    -9.978      0.000      0.000
REMARK INTER + INTRA:         -15.317
REMARK INTER:                 -14.061
REMARK INTRA:                  -1.256
REMARK UNBOUND:                -1.256
REMARK  7 active torsions:
REMARK  status: ('A' for Active; 'I' for Inactive)
REMARK    1  A    between atoms: N3_2  and  C20_12 
REMARK    2  A    between atoms: C4_3  and  C5_4 
REMARK    3  A    between atoms: C13_9  and  N2_29 
REMARK    4  A    between atoms: C17_11  and  C19_33 
REMARK    5  A    between atoms: C20_12  and  C16_31 
REMARK    6  A    between atoms: C2_23  and  C3_24 
REMARK    7  A    between atoms: C9_25  and  C12_27 
REMARK       I    between atoms: C12_27  and  N2_29 
ROOT
HETATM    1  C12   D T   1       4.298  13.983  -0.844  1.00 29.52     0.279 C 
HETATM    2  O1    D T   1       3.743  12.907  -1.094  1.00 32.52    -0.265 OA
HETATM    3  N2    D T   1       5.239  14.143   0.104  1.00 29.90    -0.208 NA
ENDROOT
BRANCH   1   4
HETATM    4  C9    D T   1       3.930  15.211  -1.621  1.00 29.36     0.059 A 
HETATM    5  C8    D T   1       2.649  15.868  -1.480  1.00 30.11     0.004 A 
HETATM    6  C7    D T   1       2.348  17.034  -2.247  1.00 28.94    -0.004 A 
HETATM    7  C6    D T   1       3.320  17.569  -3.164  1.00 28.77    -0.014 A 
HETATM    8  C5    D T   1       4.614  16.899  -3.297  1.00 26.45     0.038 A 
HETATM    9  C11   D T   1       2.950  18.822  -3.956  1.00 28.14     0.032 C 
HETATM   10  C10   D T   1       4.884  15.744  -2.526  1.00 27.23     0.013 A 
BRANCH   8  11
HETATM   11  C4    D T   1       5.685  17.354  -4.179  1.00 24.91    -0.058 C 
HETATM   12  C3    D T   1       6.642  17.705  -4.847  1.00 23.74    -0.039 C 
BRANCH  12  13
HETATM   13  C2    D T   1       7.798  18.103  -5.537  1.00 23.00     0.145 A 
HETATM   14  N82   D T   1       8.513  17.366  -6.441  1.00 25.15    -0.203 N 
HETATM   15  N81   D T   1       8.251  16.078  -6.864  1.00 28.83    -0.162 NA
HETATM   16  C84   D T   1       9.579  18.211  -6.841  1.00 26.40     0.165 A 
HETATM   17  C83   D T   1       9.145  15.629  -7.758  1.00 28.11     0.121 A 
HETATM   18  C82   D T   1      10.265  16.361  -8.253  1.00 26.65     0.026 A 
HETATM   19  C81   D T   1      10.483  17.650  -7.799  1.00 28.42     0.041 A 
HETATM   20  N1    D T   1       9.514  19.380  -6.228  1.00 27.29    -0.223 NA
HETATM   21  C1    D T   1       8.404  19.311  -5.411  1.00 23.61     0.128 A 
ENDBRANCH  12  13
ENDBRANCH   8  11
ENDBRANCH   1   4
BRANCH   3  22
HETATM   22  C13   D T   1       6.008  13.140   0.749  1.00 31.24     0.085 A 
HETATM   23  C14   D T   1       7.279  12.839   0.202  1.00 32.94     0.019 A 
HETATM   24  C15   D T   1       8.101  11.837   0.806  1.00 32.88    -0.001 A 
HETATM   25  C16   D T   1       7.666  11.112   1.984  1.00 31.70     0.015 A 
HETATM   26  C17   D T   1       6.349  11.424   2.554  1.00 32.08     0.071 A 
HETATM   27  C18   D T   1       5.557  12.429   1.919  1.00 32.72     0.023 A 
BRANCH  25  28
HETATM   28  C20   D T   1       8.631  10.052   2.565  1.00 29.95     0.277 C 
BRANCH  28  29
HETATM   29  N3    D T   1       9.379  10.484   3.752  1.00 31.16     0.146 N 
HETATM   30  C21   D T   1       9.567   9.396   4.759  1.00 32.15     0.286 C 
HETATM   31  C22   D T   1      10.218   9.956   6.043  1.00 31.08     0.286 C 
HETATM   32  N4    D T   1      11.554  10.501   5.729  1.00 32.74     0.143 N 
HETATM   33  C23   D T   1      11.457  11.557   4.674  1.00 30.79     0.286 C 
HETATM   34  C25   D T   1      12.245  10.956   6.927  1.00 30.23     0.285 C 
HETATM   35  C24   D T   1      10.695  11.059   3.407  1.00 28.48     0.286 C 
ENDBRANCH  28  29
ENDBRANCH  25  28
BRANCH  26  36
HETATM   36  C19   D T   1       5.760  10.734   3.806  1.00 33.23     0.419 C 
HETATM   37  F1    D T   1       5.605   9.444   3.572  1.00 33.40    -0.166 F 
HETATM   38  F2    D T   1       6.553  10.836   4.870  1.00 31.99    -0.166 F 
HETATM   39  F3    D T   1       4.584  11.272   4.140  1.00 36.12    -0.166 F 
ENDBRANCH  26  36
ENDBRANCH   3  22
TORSDOF 7
ENDMDL
MODEL 2
REMARK VINA RESULT:    -9.926      3.559     10.868
REMARK INTER + INTRA:         -15.244
REMARK INTER:                 -14.003
REMARK INTRA:                  -1.241
REMARK UNBOUND:                -1.256
REMARK  7 active torsions:
REMARK  status: ('A' for Active; 'I' for Inactive)
REMARK    1  A    between atoms: N3_2  and  C20_12 
REMARK    2  A    between atoms: C4_3  and  C5_4 
REMARK    3  A    between atoms: C13_9  and  N2_29 
REMARK    4  A    between atoms: C17_11  and  C19_33 
REMARK    5  A    between atoms: C20_12  and  C16_31 
REMARK    6  A    between atoms: C2_23  and  C3_24 
REMARK    7  A    between atoms: C9_25  and  C12_27 
REMARK       I    between atoms: C12_27  and  N2_29 
ROOT
HETATM    1  C12   D T   1       5.499  14.190  -0.017  1.00 29.52     0.279 C 
HETATM    2  O1    D T   1       6.211  15.160   0.264  1.00 32.52    -0.265 OA
HETATM    3  N2    D T   1       5.021  13.940  -1.251  1.00 29.90    -0.208 NA
ENDROOT
BRANCH   1   4
HETATM    4  C9    D T   1       5.117  13.208   1.048  1.00 29.36     0.059 A 
HETATM    5  C8    D T   1       3.746  12.818   1.294  1.00 30.11     0.004 A 
HETATM    6  C7    D T   1       3.437  11.880   2.325  1.00 28.94    -0.004 A 
HETATM    7  C6    D T   1       4.489  11.309   3.125  1.00 28.77    -0.014 A 
HETATM    8  C5    D T   1       5.872  11.708   2.866  1.00 26.45     0.038 A 
HETATM    9  C11   D T   1       4.104  10.306   4.211  1.00 28.14     0.032 C 
HETATM   10  C10   D T   1       6.149  12.641   1.839  1.00 27.23     0.013 A 
BRANCH   8  11
HETATM   11  C4    D T   1       7.024  11.188   3.597  1.00 24.91    -0.058 C 
HETATM   12  C3    D T   1       8.043  10.801   4.143  1.00 23.74    -0.039 C 
BRANCH  12  13
HETATM   13  C2    D T   1       9.264  10.381   4.694  1.00 23.00     0.145 A 
HETATM   14  N82   D T   1      10.407  11.123   4.825  1.00 25.15    -0.203 N 
HETATM   15  N81   D T   1      10.601  12.436   4.443  1.00 28.83    -0.162 NA
HETATM   16  C84   D T   1      11.344  10.247   5.432  1.00 26.40     0.165 A 
HETATM   17  C83   D T   1      11.841  12.877   4.703  1.00 28.11     0.121 A 
HETATM   18  C82   D T   1      12.886  12.116   5.305  1.00 26.65     0.026 A 
HETATM   19  C81   D T   1      12.640  10.805   5.672  1.00 28.42     0.041 A 
HETATM   20  N1    D T   1      10.807   9.061   5.658  1.00 27.29    -0.223 NA
HETATM   21  C1    D T   1       9.510   9.144   5.193  1.00 23.61     0.128 A 
ENDBRANCH  12  13
ENDBRANCH   8  11
ENDBRANCH   1   4
BRANCH   3  22
HETATM   22  C13   D T   1       5.466  14.480  -2.485  1.00 31.24     0.085 A 
HETATM   23  C14   D T   1       6.443  13.749  -3.203  1.00 32.94     0.019 A 
HETATM   24  C15   D T   1       6.933  14.240  -4.454  1.00 32.88    -0.001 A 
HETATM   25  C16   D T   1       6.447  15.484  -5.018  1.00 31.70     0.015 A 
HETATM   26  C17   D T   1       5.432  16.244  -4.276  1.00 32.08     0.071 A 
HETATM   27  C18   D T   1       4.972  15.720  -3.029  1.00 32.72     0.023 A 
BRANCH  25  28
HETATM   28  C20   D T   1       7.035  15.927  -6.379  1.00 29.95     0.277 C 
BRANCH  28  29
HETATM   29  N3    D T   1       8.498  16.050  -6.408  1.00 31.16     0.146 N 
HETATM   30  C21   D T   1       9.080  15.858  -7.770  1.00 32.15     0.286 C 
HETATM   31  C22   D T   1      10.623  15.842  -7.700  1.00 31.08     0.286 C 
HETATM   32  N4    D T   1      11.112  17.140  -7.192  1.00 32.74     0.143 N 
HETATM   33  C23   D T   1      10.519  17.437  -5.851  1.00 30.79     0.286 C 
HETATM   34  C25   D T   1      12.567  17.206  -7.197  1.00 30.23     0.285 C 
HETATM   35  C24   D T   1       8.962  17.340  -5.859  1.00 28.48     0.286 C 
ENDBRANCH  28  29
ENDBRANCH  25  28
BRANCH  26  36
HETATM   36  C19   D T   1       4.824  17.581  -4.759  1.00 33.23     0.419 C 
HETATM   37  F1    D T   1       4.165  17.388  -5.887  1.00 33.40    -0.166 F 
HETATM   38  F2    D T   1       3.953  18.092  -3.891  1.00 31.99    -0.166 F 
HETATM   39  F3    D T   1       5.774  18.499  -4.947  1.00 36.12    -0.166 F 
ENDBRANCH  26  36
ENDBRANCH   3  22
TORSDOF 7
ENDMDL
MODEL 3
REMARK VINA RESULT:    -9.630      4.066     10.428
REMARK INTER + INTRA:         -14.827
REMARK INTER:                 -13.548
REMARK INTRA:                  -1.279
REMARK UNBOUND:                -1.256
REMARK  7 active torsions:
REMARK  status: ('A' for Active; 'I' for Inactive)
REMARK    1  A    between atoms: N3_2  and  C20_12 
REMARK    2  A    between atoms: C4_3  and  C5_4 
REMARK    3  A    between atoms: C13_9  and  N2_29 
REMARK    4  A    between atoms: C17_11  and  C19_33 
REMARK    5  A    between atoms: C20_12  and  C16_31 
REMARK    6  A    between atoms: C2_23  and  C3_24 
REMARK    7  A    between atoms: C9_25  and  C12_27 
REMARK       I    between atoms: C12_27  and  N2_29 
ROOT
HETATM    1  C12   D T   1       3.460  15.096  -1.770  1.00 29.52     0.279 C 
HETATM    2  O1    D T   1       2.753  16.090  -1.966  1.00 32.52    -0.265 OA
HETATM    3  N2    D T   1       4.600  14.839  -2.437  1.00 29.90    -0.208 NA
ENDROOT
BRANCH   1   4
HETATM    4  C9    D T   1       3.062  14.089  -0.734  1.00 29.36     0.059 A 
HETATM    5  C8    D T   1       1.705  13.604  -0.599  1.00 30.11     0.004 A 
HETATM    6  C7    D T   1       1.379  12.646   0.408  1.00 28.94    -0.004 A 
HETATM    7  C6    D T   1       2.400  12.150   1.294  1.00 28.77    -0.014 A 
HETATM    8  C5    D T   1       3.768  12.644   1.148  1.00 26.45     0.038 A 
HETATM    9  C11   D T   1       1.998  11.121   2.350  1.00 28.14     0.032 C 
HETATM   10  C10   D T   1       4.063  13.595   0.142  1.00 27.23     0.013 A 
BRANCH   8  11
HETATM   11  C4    D T   1       4.890  12.205   1.972  1.00 24.91    -0.058 C 
HETATM   12  C3    D T   1       5.883  11.847   2.582  1.00 23.74    -0.039 C 
BRANCH  12  13
HETATM   13  C2    D T   1       7.069  11.419   3.200  1.00 23.00     0.145 A 
HETATM   14  N82   D T   1       8.350  11.730   2.829  1.00 25.15    -0.203 N 
HETATM   15  N81   D T   1       8.744  12.525   1.772  1.00 28.83    -0.162 NA
HETATM   16  C84   D T   1       9.175  11.053   3.763  1.00 26.40     0.165 A 
HETATM   17  C83   D T   1      10.078  12.632   1.668  1.00 28.11     0.121 A 
HETATM   18  C82   D T   1      11.031  12.012   2.529  1.00 26.65     0.026 A 
HETATM   19  C81   D T   1      10.583  11.226   3.576  1.00 28.42     0.041 A 
HETATM   20  N1    D T   1       8.448  10.384   4.641  1.00 27.29    -0.223 NA
HETATM   21  C1    D T   1       7.134  10.610   4.287  1.00 23.61     0.128 A 
ENDBRANCH  12  13
ENDBRANCH   8  11
ENDBRANCH   1   4
BRANCH   3  22
HETATM   22  C13   D T   1       5.382  15.738  -3.208  1.00 31.24     0.085 A 
HETATM   23  C14   D T   1       6.613  16.170  -2.658  1.00 32.94     0.019 A 
HETATM   24  C15   D T   1       7.446  17.076  -3.386  1.00 32.88    -0.001 A 
HETATM   25  C16   D T   1       7.062  17.570  -4.693  1.00 31.70     0.015 A 
HETATM   26  C17   D T   1       5.786  17.123  -5.267  1.00 32.08     0.071 A 
HETATM   27  C18   D T   1       4.982  16.220  -4.506  1.00 32.72     0.023 A 
BRANCH  25  28
HETATM   28  C20   D T   1       8.035  18.543  -5.402  1.00 29.95     0.277 C 
BRANCH  28  29
HETATM   29  N3    D T   1       9.210  17.906  -6.009  1.00 31.16     0.146 N 
HETATM   30  C21   D T   1       9.334  18.171  -7.474  1.00 32.15     0.286 C 
HETATM   31  C22   D T   1      10.494  17.347  -8.075  1.00 31.08     0.286 C 
HETATM   32  N4    D T   1      11.769  17.748  -7.446  1.00 32.74     0.143 N 
HETATM   33  C23   D T   1      11.701  17.572  -5.962  1.00 30.79     0.286 C 
HETATM   34  C25   D T   1      12.904  17.062  -8.048  1.00 30.23     0.285 C 
HETATM   35  C24   D T   1      10.467  18.294  -5.337  1.00 28.48     0.286 C 
ENDBRANCH  28  29
ENDBRANCH  25  28
BRANCH  26  36
HETATM   36  C19   D T   1       5.253  17.565  -6.649  1.00 33.23     0.419 C 
HETATM   37  F1    D T   1       6.160  17.316  -7.576  1.00 33.40    -0.166 F 
HETATM   38  F2    D T   1       4.151  16.910  -7.008  1.00 31.99    -0.166 F 
HETATM   39  F3    D T   1       4.954  18.866  -6.653  1.00 36.12    -0.166 F 
ENDBRANCH  26  36
ENDBRANCH   3  22
TORSDOF 7
ENDMDL
MODEL 4
REMARK VINA RESULT:    -9.440      3.810     10.733
REMARK INTER + INTRA:         -14.559
REMARK INTER:                 -13.242
REMARK INTRA:                  -1.317
REMARK UNBOUND:                -1.256
REMARK  7 active torsions:
REMARK  status: ('A' for Active; 'I' for Inactive)
REMARK    1  A    between atoms: N3_2  and  C20_12 
REMARK    2  A    between atoms: C4_3  and  C5_4 
REMARK    3  A    between atoms: C13_9  and  N2_29 
REMARK    4  A    between atoms: C17_11  and  C19_33 
REMARK    5  A    between atoms: C20_12  and  C16_31 
REMARK    6  A    between atoms: C2_23  and  C3_24 
REMARK    7  A    between atoms: C9_25  and  C12_27 
REMARK       I    between atoms: C12_27  and  N2_29 
ROOT
HETATM    1  C12   D T   1       4.475  15.502  -2.262  1.00 29.52     0.279 C 
HETATM    2  O1    D T   1       4.605  16.696  -1.971  1.00 32.52    -0.265 OA
HETATM    3  N2    D T   1       4.851  14.969  -3.440  1.00 29.90    -0.208 NA
ENDROOT
BRANCH   1   4
HETATM    4  C9    D T   1       3.868  14.553  -1.275  1.00 29.36     0.059 A 
HETATM    5  C8    D T   1       2.460  14.218  -1.280  1.00 30.11     0.004 A 
HETATM    6  C7    D T   1       1.932  13.310  -0.313  1.00 28.94    -0.004 A 
HETATM    7  C6    D T   1       2.797  12.716   0.673  1.00 28.77    -0.014 A 
HETATM    8  C5    D T   1       4.218  13.059   0.668  1.00 26.45     0.038 A 
HETATM    9  C11   D T   1       2.181  11.746   1.681  1.00 28.14     0.032 C 
HETATM   10  C10   D T   1       4.715  13.963  -0.301  1.00 27.23     0.013 A 
BRANCH   8  11
HETATM   11  C4    D T   1       5.196  12.510   1.602  1.00 24.91    -0.058 C 
HETATM   12  C3    D T   1       6.077  12.051   2.309  1.00 23.74    -0.039 C 
BRANCH  12  13
HETATM   13  C2    D T   1       7.138  11.498   3.044  1.00 23.00     0.145 A 
HETATM   14  N82   D T   1       8.476  11.715   2.849  1.00 25.15    -0.203 N 
HETATM   15  N81   D T   1       9.062  12.519   1.892  1.00 28.83    -0.162 NA
HETATM   16  C84   D T   1       9.121  10.932   3.840  1.00 26.40     0.165 A 
HETATM   17  C83   D T   1      10.402  12.517   1.958  1.00 28.11     0.121 A 
HETATM   18  C82   D T   1      11.188  11.782   2.894  1.00 26.65     0.026 A 
HETATM   19  C81   D T   1      10.551  10.992   3.836  1.00 28.42     0.041 A 
HETATM   20  N1    D T   1       8.239  10.289   4.586  1.00 27.29    -0.223 NA
HETATM   21  C1    D T   1       7.002  10.640   4.086  1.00 23.61     0.128 A 
ENDBRANCH  12  13
ENDBRANCH   8  11
ENDBRANCH   1   4
BRANCH   3  22
HETATM   22  C13   D T   1       5.728  15.523  -4.408  1.00 31.24     0.085 A 
HETATM   23  C14   D T   1       5.161  16.357  -5.402  1.00 32.94     0.019 A 
HETATM   24  C15   D T   1       5.992  16.945  -6.406  1.00 32.88    -0.001 A 
HETATM   25  C16   D T   1       7.423  16.710  -6.434  1.00 31.70     0.015 A 
HETATM   26  C17   D T   1       8.014  15.846  -5.403  1.00 32.08     0.071 A 
HETATM   27  C18   D T   1       7.148  15.276  -4.421  1.00 32.72     0.023 A 
BRANCH  25  28
HETATM   28  C20   D T   1       8.235  17.396  -7.558  1.00 29.95     0.277 C 
BRANCH  28  29
HETATM   29  N3    D T   1       8.889  18.652  -7.168  1.00 31.16     0.146 N 
HETATM   30  C21   D T   1      10.351  18.674  -7.473  1.00 32.15     0.286 C 
HETATM   31  C22   D T   1      11.002  19.951  -6.896  1.00 31.08     0.286 C 
HETATM   32  N4    D T   1      10.403  21.145  -7.527  1.00 32.74     0.143 N 
HETATM   33  C23   D T   1       8.921  21.160  -7.320  1.00 30.79     0.286 C 
HETATM   34  C25   D T   1      11.051  22.370  -7.082  1.00 30.23     0.285 C 
HETATM   35  C24   D T   1       8.247  19.831  -7.782  1.00 28.48     0.286 C 
ENDBRANCH  28  29
ENDBRANCH  25  28
BRANCH  26  36
HETATM   36  C19   D T   1       9.520  15.513  -5.310  1.00 33.23     0.419 C 
HETATM   37  F1    D T   1       9.982  15.198  -6.507  1.00 33.40    -0.166 F 
HETATM   38  F2    D T   1      10.248  16.541  -4.879  1.00 31.99    -0.166 F 
HETATM   39  F3    D T   1       9.735  14.500  -4.467  1.00 36.12    -0.166 F 
ENDBRANCH  26  36
ENDBRANCH   3  22
TORSDOF 7
ENDMDL
MODEL 5
REMARK VINA RESULT:    -9.378      5.121     11.716
REMARK INTER + INTRA:         -14.472
REMARK INTER:                 -13.318
REMARK INTRA:                  -1.153
REMARK UNBOUND:                -1.256
REMARK  7 active torsions:
REMARK  status: ('A' for Active; 'I' for Inactive)
REMARK    1  A    between atoms: N3_2  and  C20_12 
REMARK    2  A    between atoms: C4_3  and  C5_4 
REMARK    3  A    between atoms: C13_9  and  N2_29 
REMARK    4  A    between atoms: C17_11  and  C19_33 
REMARK    5  A    between atoms: C20_12  and  C16_31 
REMARK    6  A    between atoms: C2_23  and  C3_24 
REMARK    7  A    between atoms: C9_25  and  C12_27 
REMARK       I    between atoms: C12_27  and  N2_29 
ROOT
HETATM    1  C12   D T   1       6.469  13.908  -2.676  1.00 29.52     0.279 C 
HETATM    2  O1    D T   1       5.812  13.426  -3.605  1.00 32.52    -0.265 OA
HETATM    3  N2    D T   1       7.425  14.842  -2.835  1.00 29.90    -0.208 NA
ENDROOT
BRANCH   1   4
HETATM    4  C9    D T   1       6.221  13.453  -1.269  1.00 29.36     0.059 A 
HETATM    5  C8    D T   1       7.286  13.015  -0.393  1.00 30.11     0.004 A 
HETATM    6  C7    D T   1       6.994  12.587   0.938  1.00 28.94    -0.004 A 
HETATM    7  C6    D T   1       5.638  12.595   1.420  1.00 28.77    -0.014 A 
HETATM    8  C5    D T   1       4.569  13.042   0.527  1.00 26.45     0.038 A 
HETATM    9  C11   D T   1       5.381  12.134   2.854  1.00 28.14     0.032 C 
HETATM   10  C10   D T   1       4.887  13.459  -0.787  1.00 27.23     0.013 A 
BRANCH   8  11
HETATM   11  C4    D T   1       3.161  13.111   0.905  1.00 24.91    -0.058 C 
HETATM   12  C3    D T   1       1.983  13.257   1.182  1.00 23.74    -0.039 C 
BRANCH  12  13
HETATM   13  C2    D T   1       0.637  13.519   1.485  1.00 23.00     0.145 A 
HETATM   14  N82   D T   1      -0.421  13.505   0.616  1.00 25.15    -0.203 N 
HETATM   15  N81   D T   1      -0.388  13.233  -0.737  1.00 28.83    -0.162 NA
HETATM   16  C84   D T   1      -1.550  13.835   1.409  1.00 26.40     0.165 A 
HETATM   17  C83   D T   1      -1.598  13.305  -1.314  1.00 28.11     0.121 A 
HETATM   18  C82   D T   1      -2.818  13.625  -0.649  1.00 26.65     0.026 A 
HETATM   19  C81   D T   1      -2.797  13.887   0.710  1.00 28.42     0.041 A 
HETATM   20  N1    D T   1      -1.203  14.030   2.669  1.00 27.29    -0.223 NA
HETATM   21  C1    D T   1       0.162  13.837   2.715  1.00 23.61     0.128 A 
ENDBRANCH  12  13
ENDBRANCH   8  11
ENDBRANCH   1   4
BRANCH   3  22
HETATM   22  C13   D T   1       7.646  15.681  -3.958  1.00 31.24     0.085 A 
HETATM   23  C14   D T   1       6.743  16.752  -4.161  1.00 32.94     0.019 A 
HETATM   24  C15   D T   1       6.912  17.633  -5.275  1.00 32.88    -0.001 A 
HETATM   25  C16   D T   1       8.003  17.460  -6.214  1.00 31.70     0.015 A 
HETATM   26  C17   D T   1       8.943  16.351  -6.004  1.00 32.08     0.071 A 
HETATM   27  C18   D T   1       8.736  15.493  -4.882  1.00 32.72     0.023 A 
BRANCH  25  28
HETATM   28  C20   D T   1       8.103  18.470  -7.383  1.00 29.95     0.277 C 
BRANCH  28  29
HETATM   29  N3    D T   1       8.303  19.866  -6.976  1.00 31.16     0.146 N 
HETATM   30  C21   D T   1       9.704  20.344  -7.177  1.00 32.15     0.286 C 
HETATM   31  C22   D T   1       9.880  21.760  -6.585  1.00 31.08     0.286 C 
HETATM   32  N4    D T   1       8.987  22.708  -7.283  1.00 32.74     0.143 N 
HETATM   33  C23   D T   1       7.564  22.260  -7.182  1.00 30.79     0.286 C 
HETATM   34  C25   D T   1       9.187  24.074  -6.821  1.00 30.23     0.285 C 
HETATM   35  C24   D T   1       7.373  20.787  -7.660  1.00 28.48     0.286 C 
ENDBRANCH  28  29
ENDBRANCH  25  28
BRANCH  26  36
HETATM   36  C19   D T   1      10.151  16.051  -6.922  1.00 33.23     0.419 C 
HETATM   37  F1    D T   1      10.942  15.167  -6.343  1.00 33.40    -0.166 F 
HETATM   38  F2    D T   1       9.789  15.531  -8.093  1.00 31.99    -0.166 F 
HETATM   39  F3    D T   1      10.841  17.164  -7.184  1.00 36.12    -0.166 F 
ENDBRANCH  26  36
ENDBRANCH   3  22
TORSDOF 7
ENDMDL
MODEL 6
REMARK VINA RESULT:    -9.275      3.340     10.818
REMARK INTER + INTRA:         -14.326
REMARK INTER:                 -13.653
REMARK INTRA:                  -0.673
REMARK UNBOUND:                -1.256
REMARK  7 active torsions:
REMARK  status: ('A' for Active; 'I' for Inactive)
REMARK    1  A    between atoms: N3_2  and  C20_12 
REMARK    2  A    between atoms: C4_3  and  C5_4 
REMARK    3  A    between atoms: C13_9  and  N2_29 
REMARK    4  A    between atoms: C17_11  and  C19_33 
REMARK    5  A    between atoms: C20_12  and  C16_31 
REMARK    6  A    between atoms: C2_23  and  C3_24 
REMARK    7  A    between atoms: C9_25  and  C12_27 
REMARK       I    between atoms: C12_27  and  N2_29 
ROOT
HETATM    1  C12   D T   1       2.993  13.447  -0.403  1.00 29.52     0.279 C 
HETATM    2  O1    D T   1       1.845  13.775  -0.721  1.00 32.52    -0.265 OA
HETATM    3  N2    D T   1       4.094  13.799  -1.093  1.00 29.90    -0.208 NA
ENDROOT
BRANCH   1   4
HETATM    4  C9    D T   1       3.221  12.606   0.816  1.00 29.36     0.059 A 
HETATM    5  C8    D T   1       2.152  11.898   1.485  1.00 30.11     0.004 A 
HETATM    6  C7    D T   1       2.423  11.114   2.647  1.00 28.94    -0.004 A 
HETATM    7  C6    D T   1       3.765  11.017   3.159  1.00 28.77    -0.014 A 
HETATM    8  C5    D T   1       4.839  11.735   2.474  1.00 26.45     0.038 A 
HETATM    9  C11   D T   1       4.002  10.159   4.401  1.00 28.14     0.032 C 
HETATM   10  C10   D T   1       4.541  12.507   1.326  1.00 27.23     0.013 A 
BRANCH   8  11
HETATM   11  C4    D T   1       6.239  11.702   2.886  1.00 24.91    -0.058 C 
HETATM   12  C3    D T   1       7.432  11.680   3.136  1.00 23.74    -0.039 C 
BRANCH  12  13
HETATM   13  C2    D T   1       8.822  11.632   3.332  1.00 23.00     0.145 A 
HETATM   14  N82   D T   1       9.505  10.814   4.191  1.00 25.15    -0.203 N 
HETATM   15  N81   D T   1       8.974   9.867   5.045  1.00 28.83    -0.162 NA
HETATM   16  C84   D T   1      10.870  11.156   4.014  1.00 26.40     0.165 A 
HETATM   17  C83   D T   1       9.910   9.230   5.764  1.00 28.11     0.121 A 
HETATM   18  C82   D T   1      11.315   9.465   5.697  1.00 26.65     0.026 A 
HETATM   19  C81   D T   1      11.797  10.424   4.822  1.00 28.42     0.041 A 
HETATM   20  N1    D T   1      11.006  12.110   3.110  1.00 27.29    -0.223 NA
HETATM   21  C1    D T   1       9.727  12.409   2.687  1.00 23.61     0.128 A 
ENDBRANCH  12  13
ENDBRANCH   8  11
ENDBRANCH   1   4
BRANCH   3  22
HETATM   22  C13   D T   1       4.227  14.829  -2.060  1.00 31.24     0.085 A 
HETATM   23  C14   D T   1       5.213  14.661  -3.062  1.00 32.94     0.019 A 
HETATM   24  C15   D T   1       5.396  15.664  -4.065  1.00 32.88    -0.001 A 
HETATM   25  C16   D T   1       4.584  16.865  -4.088  1.00 31.70     0.015 A 
HETATM   26  C17   D T   1       3.559  17.040  -3.051  1.00 32.08     0.071 A 
HETATM   27  C18   D T   1       3.411  16.017  -2.065  1.00 32.72     0.023 A 
BRANCH  25  28
HETATM   28  C20   D T   1       4.856  17.887  -5.217  1.00 29.95     0.277 C 
BRANCH  28  29
HETATM   29  N3    D T   1       6.239  17.910  -5.708  1.00 31.16     0.146 N 
HETATM   30  C21   D T   1       6.431  17.133  -6.970  1.00 32.15     0.286 C 
HETATM   31  C22   D T   1       7.930  17.069  -7.340  1.00 31.08     0.286 C 
HETATM   32  N4    D T   1       8.443  18.433  -7.581  1.00 32.74     0.143 N 
HETATM   33  C23   D T   1       8.227  19.295  -6.378  1.00 30.79     0.286 C 
HETATM   34  C25   D T   1       9.830  18.414  -8.025  1.00 30.23     0.285 C 
HETATM   35  C24   D T   1       6.741  19.286  -5.904  1.00 28.48     0.286 C 
ENDBRANCH  28  29
ENDBRANCH  25  28
BRANCH  26  36
HETATM   36  C19   D T   1       2.622  18.267  -2.955  1.00 33.23     0.419 C 
HETATM   37  F1    D T   1       2.167  18.385  -1.721  1.00 33.40    -0.166 F 
HETATM   38  F2    D T   1       3.240  19.409  -3.245  1.00 31.99    -0.166 F 
HETATM   39  F3    D T   1       1.595  18.151  -3.801  1.00 36.12    -0.166 F 
ENDBRANCH  26  36
ENDBRANCH   3  22
TORSDOF 7
ENDMDL
MODEL 7
REMARK VINA RESULT:    -9.184      3.767     10.804
REMARK INTER + INTRA:         -14.198
REMARK INTER:                 -13.163
REMARK INTRA:                  -1.035
REMARK UNBOUND:                -1.256
REMARK  7 active torsions:
REMARK  status: ('A' for Active; 'I' for Inactive)
REMARK    1  A    between atoms: N3_2  and  C20_12 
REMARK    2  A    between atoms: C4_3  and  C5_4 
REMARK    3  A    between atoms: C13_9  and  N2_29 
REMARK    4  A    between atoms: C17_11  and  C19_33 
REMARK    5  A    between atoms: C20_12  and  C16_31 
REMARK    6  A    between atoms: C2_23  and  C3_24 
REMARK    7  A    between atoms: C9_25  and  C12_27 
REMARK       I    between atoms: C12_27  and  N2_29 
ROOT
HETATM    1  C12   D T   1       4.293  14.615  -1.165  1.00 29.52     0.279 C 
HETATM    2  O1    D T   1       3.349  15.373  -1.411  1.00 32.52    -0.265 OA
HETATM    3  N2    D T   1       5.412  14.539  -1.909  1.00 29.90    -0.208 NA
ENDROOT
BRANCH   1   4
HETATM    4  C9    D T   1       4.232  13.706   0.025  1.00 29.36     0.059 A 
HETATM    5  C8    D T   1       2.996  13.113   0.489  1.00 30.11     0.004 A 
HETATM    6  C7    D T   1       2.992  12.256   1.632  1.00 28.94    -0.004 A 
HETATM    7  C6    D T   1       4.220  11.971   2.328  1.00 28.77    -0.014 A 
HETATM    8  C5    D T   1       5.464  12.573   1.849  1.00 26.45     0.038 A 
HETATM    9  C11   D T   1       4.162  11.043   3.540  1.00 28.14     0.032 C 
HETATM   10  C10   D T   1       5.438  13.420   0.715  1.00 27.23     0.013 A 
BRANCH   8  11
HETATM   11  C4    D T   1       6.771  12.347   2.458  1.00 24.91    -0.058 C 
HETATM   12  C3    D T   1       7.893  12.127   2.880  1.00 23.74    -0.039 C 
BRANCH  12  13
HETATM   13  C2    D T   1       9.201  11.821   3.287  1.00 23.00     0.145 A 
HETATM   14  N82   D T   1       9.581  10.860   4.185  1.00 25.15    -0.203 N 
HETATM   15  N81   D T   1       8.761   9.992   4.877  1.00 28.83    -0.162 NA
HETATM   16  C84   D T   1      10.995  10.956   4.248  1.00 26.40     0.165 A 
HETATM   17  C83   D T   1       9.440   9.167   5.689  1.00 28.11     0.121 A 
HETATM   18  C82   D T   1      10.856   9.147   5.859  1.00 26.65     0.026 A 
HETATM   19  C81   D T   1      11.634  10.037   5.139  1.00 28.42     0.041 A 
HETATM   20  N1    D T   1      11.442  11.905   3.443  1.00 27.29    -0.223 NA
HETATM   21  C1    D T   1      10.322  12.447   2.847  1.00 23.61     0.128 A 
ENDBRANCH  12  13
ENDBRANCH   8  11
ENDBRANCH   1   4
BRANCH   3  22
HETATM   22  C13   D T   1       5.891  15.473  -2.864  1.00 31.24     0.085 A 
HETATM   23  C14   D T   1       6.926  16.350  -2.459  1.00 32.94     0.019 A 
HETATM   24  C15   D T   1       7.450  17.314  -3.375  1.00 32.88    -0.001 A 
HETATM   25  C16   D T   1       6.947  17.419  -4.730  1.00 31.70     0.015 A 
HETATM   26  C17   D T   1       5.874  16.510  -5.154  1.00 32.08     0.071 A 
HETATM   27  C18   D T   1       5.376  15.563  -4.207  1.00 32.72     0.023 A 
BRANCH  25  28
HETATM   28  C20   D T   1       7.584  18.491  -5.646  1.00 29.95     0.277 C 
BRANCH  28  29
HETATM   29  N3    D T   1       8.989  18.248  -5.996  1.00 31.16     0.146 N 
HETATM   30  C21   D T   1       9.277  16.818  -6.318  1.00 32.15     0.286 C 
HETATM   31  C22   D T   1      10.794  16.606  -6.520  1.00 31.08     0.286 C 
HETATM   32  N4    D T   1      11.263  17.418  -7.661  1.00 32.74     0.143 N 
HETATM   33  C23   D T   1      10.950  18.864  -7.442  1.00 30.79     0.286 C 
HETATM   34  C25   D T   1      12.671  17.178  -7.948  1.00 30.23     0.285 C 
HETATM   35  C24   D T   1       9.443  19.099  -7.114  1.00 28.48     0.286 C 
ENDBRANCH  28  29
ENDBRANCH  25  28
BRANCH  26  36
HETATM   36  C19   D T   1       5.245  16.508  -6.567  1.00 33.23     0.419 C 
HETATM   37  F1    D T   1       4.691  15.333  -6.806  1.00 33.40    -0.166 F 
HETATM   38  F2    D T   1       4.283  17.418  -6.702  1.00 31.99    -0.166 F 
HETATM   39  F3    D T   1       6.164  16.767  -7.500  1.00 36.12    -0.166 F 
ENDBRANCH  26  36
ENDBRANCH   3  22
TORSDOF 7
ENDMDL
MODEL 8
REMARK VINA RESULT:    -9.123      2.123      3.191
REMARK INTER + INTRA:         -14.112
REMARK INTER:                 -13.421
REMARK INTRA:                  -0.691
REMARK UNBOUND:                -1.256
REMARK  7 active torsions:
REMARK  status: ('A' for Active; 'I' for Inactive)
REMARK    1  A    between atoms: N3_2  and  C20_12 
REMARK    2  A    between atoms: C4_3  and  C5_4 
REMARK    3  A    between atoms: C13_9  and  N2_29 
REMARK    4  A    between atoms: C17_11  and  C19_33 
REMARK    5  A    between atoms: C20_12  and  C16_31 
REMARK    6  A    between atoms: C2_23  and  C3_24 
REMARK    7  A    between atoms: C9_25  and  C12_27 
REMARK       I    between atoms: C12_27  and  N2_29 
ROOT
HETATM    1  C12   D T   1       3.391  16.659  -1.682  1.00 29.52     0.279 C 
HETATM    2  O1    D T   1       2.401  16.768  -0.950  1.00 32.52    -0.265 OA
HETATM    3  N2    D T   1       4.460  15.895  -1.393  1.00 29.90    -0.208 NA
ENDROOT
BRANCH   1   4
HETATM    4  C9    D T   1       3.446  17.404  -2.981  1.00 29.36     0.059 A 
HETATM    5  C8    D T   1       2.454  18.387  -3.358  1.00 30.11     0.004 A 
HETATM    6  C7    D T   1       2.552  19.066  -4.610  1.00 28.94    -0.004 A 
HETATM    7  C6    D T   1       3.643  18.782  -5.506  1.00 28.77    -0.014 A 
HETATM    8  C5    D T   1       4.642  17.789  -5.114  1.00 26.45     0.038 A 
HETATM    9  C11   D T   1       3.705  19.542  -6.830  1.00 28.14     0.032 C 
HETATM   10  C10   D T   1       4.519  17.130  -3.867  1.00 27.23     0.013 A 
BRANCH   8  11
HETATM   11  C4    D T   1       5.800  17.427  -5.925  1.00 24.91    -0.058 C 
HETATM   12  C3    D T   1       6.822  17.174  -6.540  1.00 23.74    -0.039 C 
BRANCH  12  13
HETATM   13  C2    D T   1       8.043  16.951  -7.198  1.00 23.00     0.145 A 
HETATM   14  N82   D T   1       9.172  16.385  -6.670  1.00 25.15    -0.203 N 
HETATM   15  N81   D T   1       9.349  15.916  -5.383  1.00 28.83    -0.162 NA
HETATM   16  C84   D T   1      10.114  16.391  -7.730  1.00 26.40     0.165 A 
HETATM   17  C83   D T   1      10.578  15.420  -5.174  1.00 28.11     0.121 A 
HETATM   18  C82   D T   1      11.627  15.361  -6.138  1.00 26.65     0.026 A 
HETATM   19  C81   D T   1      11.397  15.842  -7.415  1.00 28.42     0.041 A 
HETATM   20  N1    D T   1       9.593  16.919  -8.824  1.00 27.29    -0.223 NA
HETATM   21  C1    D T   1       8.302  17.272  -8.490  1.00 23.61     0.128 A 
ENDBRANCH  12  13
ENDBRANCH   8  11
ENDBRANCH   1   4
BRANCH   3  22
HETATM   22  C13   D T   1       4.554  14.850  -0.437  1.00 31.24     0.085 A 
HETATM   23  C14   D T   1       5.753  14.755   0.311  1.00 32.94     0.019 A 
HETATM   24  C15   D T   1       5.909  13.724   1.289  1.00 32.88    -0.001 A 
HETATM   25  C16   D T   1       4.856  12.760   1.544  1.00 31.70     0.015 A 
HETATM   26  C17   D T   1       3.611  12.857   0.770  1.00 32.08     0.071 A 
HETATM   27  C18   D T   1       3.497  13.900  -0.200  1.00 32.72     0.023 A 
BRANCH  25  28
HETATM   28  C20   D T   1       5.120  11.686   2.626  1.00 29.95     0.277 C 
BRANCH  28  29
HETATM   29  N3    D T   1       6.530  11.526   3.005  1.00 31.16     0.146 N 
HETATM   30  C21   D T   1       6.725  10.637   4.190  1.00 32.15     0.286 C 
HETATM   31  C22   D T   1       8.206  10.640   4.629  1.00 31.08     0.286 C 
HETATM   32  N4    D T   1       9.050  10.112   3.538  1.00 32.74     0.143 N 
HETATM   33  C23   D T   1       8.860  10.914   2.290  1.00 30.79     0.286 C 
HETATM   34  C25   D T   1      10.446  10.008   3.940  1.00 30.23     0.285 C 
HETATM   35  C24   D T   1       7.358  11.033   1.887  1.00 28.48     0.286 C 
ENDBRANCH  28  29
ENDBRANCH  25  28
BRANCH  26  36
HETATM   36  C19   D T   1       2.408  11.901   0.938  1.00 33.23     0.419 C 
HETATM   37  F1    D T   1       1.483  12.188   0.041  1.00 33.40    -0.166 F 
HETATM   38  F2    D T   1       2.737  10.624   0.754  1.00 31.99    -0.166 F 
HETATM   39  F3    D T   1       1.887  11.998   2.164  1.00 36.12    -0.166 F 
ENDBRANCH  26  36
ENDBRANCH   3  22
TORSDOF 7
ENDMDL
MODEL 9
REMARK VINA RESULT:    -9.102      3.613     11.197
REMARK INTER + INTRA:         -14.083
REMARK INTER:                 -13.137
REMARK INTRA:                  -0.946
REMARK UNBOUND:                -1.256
REMARK  7 active torsions:
REMARK  status: ('A' for Active; 'I' for Inactive)
REMARK    1  A    between atoms: N3_2  and  C20_12 
REMARK    2  A    between atoms: C4_3  and  C5_4 
REMARK    3  A    between atoms: C13_9  and  N2_29 
REMARK    4  A    between atoms: C17_11  and  C19_33 
REMARK    5  A    between atoms: C20_12  and  C16_31 
REMARK    6  A    between atoms: C2_23  and  C3_24 
REMARK    7  A    between atoms: C9_25  and  C12_27 
REMARK       I    between atoms: C12_27  and  N2_29 
ROOT
HETATM    1  C12   D T   1       4.871  14.257  -1.154  1.00 29.52     0.279 C 
HETATM    2  O1    D T   1       4.155  15.261  -1.229  1.00 32.52    -0.265 OA
HETATM    3  N2    D T   1       5.666  13.823  -2.150  1.00 29.90    -0.208 NA
ENDROOT
BRANCH   1   4
HETATM    4  C9    D T   1       4.888  13.443   0.103  1.00 29.36     0.059 A 
HETATM    5  C8    D T   1       3.686  12.897   0.695  1.00 30.11     0.004 A 
HETATM    6  C7    D T   1       3.758  12.131   1.898  1.00 28.94    -0.004 A 
HETATM    7  C6    D T   1       5.029  11.891   2.529  1.00 28.77    -0.014 A 
HETATM    8  C5    D T   1       6.239  12.445   1.922  1.00 26.45     0.038 A 
HETATM    9  C11   D T   1       5.051  11.059   3.811  1.00 28.14     0.032 C 
HETATM   10  C10   D T   1       6.138  13.202   0.731  1.00 27.23     0.013 A 
BRANCH   8  11
HETATM   11  C4    D T   1       7.583  12.256   2.457  1.00 24.91    -0.058 C 
HETATM   12  C3    D T   1       8.666  12.064   2.984  1.00 23.74    -0.039 C 
BRANCH  12  13
HETATM   13  C2    D T   1       9.866  11.834   3.675  1.00 23.00     0.145 A 
HETATM   14  N82   D T   1      10.110  10.854   4.600  1.00 25.15    -0.203 N 
HETATM   15  N81   D T   1       9.230   9.890   5.047  1.00 28.83    -0.162 NA
HETATM   16  C84   D T   1      11.458  11.053   4.995  1.00 26.40     0.165 A 
HETATM   17  C83   D T   1       9.772   9.074   5.965  1.00 28.11     0.121 A 
HETATM   18  C82   D T   1      11.107   9.150   6.460  1.00 26.65     0.026 A 
HETATM   19  C81   D T   1      11.951  10.135   5.977  1.00 28.42     0.041 A 
HETATM   20  N1    D T   1      11.995  12.076   4.354  1.00 27.29    -0.223 NA
HETATM   21  C1    D T   1      11.000  12.566   3.533  1.00 23.61     0.128 A 
ENDBRANCH  12  13
ENDBRANCH   8  11
ENDBRANCH   1   4
BRANCH   3  22
HETATM   22  C13   D T   1       6.103  14.541  -3.294  1.00 31.24     0.085 A 
HETATM   23  C14   D T   1       5.117  15.192  -4.073  1.00 32.94     0.019 A 
HETATM   24  C15   D T   1       5.495  15.931  -5.238  1.00 32.88    -0.001 A 
HETATM   25  C16   D T   1       6.882  16.037  -5.648  1.00 31.70     0.015 A 
HETATM   26  C17   D T   1       7.907  15.363  -4.840  1.00 32.08     0.071 A 
HETATM   27  C18   D T   1       7.487  14.633  -3.686  1.00 32.72     0.023 A 
BRANCH  25  28
HETATM   28  C20   D T   1       7.187  16.864  -6.919  1.00 29.95     0.277 C 
BRANCH  28  29
HETATM   29  N3    D T   1       7.781  18.183  -6.669  1.00 31.16     0.146 N 
HETATM   30  C21   D T   1       9.027  18.428  -7.456  1.00 32.15     0.286 C 
HETATM   31  C22   D T   1       9.681  19.761  -7.028  1.00 31.08     0.286 C 
HETATM   32  N4    D T   1       8.758  20.881  -7.305  1.00 32.74     0.143 N 
HETATM   33  C23   D T   1       7.455  20.675  -6.600  1.00 30.79     0.286 C 
HETATM   34  C25   D T   1       9.370  22.168  -7.004  1.00 30.23     0.285 C 
HETATM   35  C24   D T   1       6.826  19.283  -6.917  1.00 28.48     0.286 C 
ENDBRANCH  28  29
ENDBRANCH  25  28
BRANCH  26  36
HETATM   36  C19   D T   1       9.420  15.394  -5.156  1.00 33.23     0.419 C 
HETATM   37  F1    D T   1       9.608  15.208  -6.450  1.00 33.40    -0.166 F 
HETATM   38  F2    D T   1       9.984  16.561  -4.852  1.00 31.99    -0.166 F 
HETATM   39  F3    D T   1      10.072  14.453  -4.469  1.00 36.12    -0.166 F 
ENDBRANCH  26  36
ENDBRANCH   3  22
TORSDOF 7
ENDMDL
