MODEL 1
REMARK VINA RESULT:    -7.772      0.000      0.000
REMARK INTER + INTRA:          -9.068
REMARK INTER:                  -8.680
REMARK INTRA:                  -0.388
REMARK UNBOUND:                -0.388
REMARK  2 active torsions:
REMARK  status: ('A' for Active; 'I' for Inactive)
REMARK    1  A    between atoms: C5_4  and  O7_13 
REMARK    2  A    between atoms: C8_10  and  O7_13 
ROOT
HETATM    1  O7    D T 502       5.551   0.411  -7.402  0.75 16.91    -0.304 OA
ENDROOT
BRANCH   1   2
HETATM    2  C5    D T 502       4.836   1.399  -6.624  0.75 15.30     0.125 A 
HETATM    3  C6    D T 502       3.944   0.913  -5.606  0.75 14.99     0.154 A 
HETATM    4  C1    D T 502       3.230   1.835  -4.811  0.75 14.19     0.041 A 
HETATM    5  O17   D T 502       3.800  -0.410  -5.420  0.75 14.56    -0.188 OA
HETATM    6  C2    D T 502       3.412   3.195  -5.037  0.75 11.95     0.060 A 
HETATM    7  C3    D T 502       4.270   3.708  -6.025  0.75 13.64     0.014 A 
HETATM    8 CL14   D T 502       2.569   4.315  -4.062  0.75  1.02    -0.082 Cl
HETATM    9  C4    D T 502       5.003   2.725  -6.839  0.75 15.27     0.028 A 
ENDBRANCH   1   2
BRANCH   1  10
HETATM   10  C8    D T 502       6.070   0.650  -8.687  0.75 15.53     0.111 A 
HETATM   11  C9    D T 502       5.180   0.501  -9.771  0.75 16.45     0.081 A 
HETATM   12  C10   D T 502       5.604   0.724 -11.098  0.75 14.07     0.025 A 
HETATM   13 CL16   D T 502       3.514   0.033  -9.502  0.75  3.69    -0.080 Cl
HETATM   14  C11   D T 502       6.959   1.107 -11.338  0.75 16.23     0.059 A 
HETATM   15  C12   D T 502       7.883   1.267 -10.270  0.75 16.59     0.013 A 
HETATM   16 CL15   D T 502       7.487   1.382 -12.951  0.75  7.17    -0.082 Cl
HETATM   17  C13   D T 502       7.441   1.039  -8.941  0.75 15.83     0.026 A 
ENDBRANCH   1  10
TORSDOF 2
ENDMDL
MODEL 2
REMARK VINA RESULT:    -7.668      1.175      5.997
REMARK INTER + INTRA:          -8.953
REMARK INTER:                  -8.634
REMARK INTRA:                  -0.319
REMARK UNBOUND:                -0.388
REMARK  2 active torsions:
REMARK  status: ('A' for Active; 'I' for Inactive)
REMARK    1  A    between atoms: C5_4  and  O7_13 
REMARK    2  A    between atoms: C8_10  and  O7_13 
ROOT
HETATM    1  O7    D T 502       5.707   0.308  -7.658  0.75 16.91    -0.304 OA
ENDROOT
BRANCH   1   2
HETATM    2  C5    D T 502       6.195   0.560  -8.997  0.75 15.30     0.125 A 
HETATM    3  C6    D T 502       5.221   0.592 -10.055  0.75 14.99     0.154 A 
HETATM    4  C1    D T 502       5.642   0.846 -11.378  0.75 14.19     0.041 A 
HETATM    5  O17   D T 502       3.924   0.384  -9.776  0.75 14.56    -0.188 OA
HETATM    6  C2    D T 502       6.995   1.058 -11.621  0.75 11.95     0.060 A 
HETATM    7  C3    D T 502       7.976   1.029 -10.614  0.75 13.64     0.014 A 
HETATM    8 CL14   D T 502       7.507   1.388 -13.215  0.75  1.02    -0.082 Cl
HETATM    9  C4    D T 502       7.510   0.764  -9.244  0.75 15.27     0.028 A 
ENDBRANCH   1   2
BRANCH   1  10
HETATM   10  C8    D T 502       5.025   1.261  -6.880  0.75 15.53     0.111 A 
HETATM   11  C9    D T 502       3.947   0.793  -6.099  0.75 16.45     0.081 A 
HETATM   12  C10   D T 502       3.205   1.670  -5.281  0.75 14.07     0.025 A 
HETATM   13 CL16   D T 502       3.497  -0.899  -6.122  0.75  3.69    -0.080 Cl
HETATM   14  C11   D T 502       3.559   3.054  -5.249  0.75 16.23     0.059 A 
HETATM   15  C12   D T 502       4.639   3.561  -6.022  0.75 16.59     0.013 A 
HETATM   16 CL15   D T 502       2.662   4.133  -4.255  0.75  7.17    -0.082 Cl
HETATM   17  C13   D T 502       5.376   2.665  -6.840  0.75 15.83     0.026 A 
ENDBRANCH   1  10
TORSDOF 2
ENDMDL
MODEL 3
REMARK VINA RESULT:    -7.567      1.293      6.129
REMARK INTER + INTRA:          -8.840
REMARK INTER:                  -8.455
REMARK INTRA:                  -0.385
REMARK UNBOUND:                -0.388
REMARK  2 active torsions:
REMARK  status: ('A' for Active; 'I' for Inactive)
REMARK    1  A    between atoms: C5_4  and  O7_13 
REMARK    2  A    between atoms: C8_10  and  O7_13 
ROOT
HETATM    1  O7    D T 502       5.213   0.629  -7.481  0.75 16.91    -0.304 OA
ENDROOT
BRANCH   1   2
HETATM    2  C5    D T 502       5.747   0.836  -8.810  0.75 15.30     0.125 A 
HETATM    3  C6    D T 502       7.165   1.045  -8.921  0.75 14.99     0.154 A 
HETATM    4  C1    D T 502       7.740   1.240 -10.196  0.75 14.19     0.041 A 
HETATM    5  O17   D T 502       7.929   1.049  -7.816  0.75 14.56    -0.188 OA
HETATM    6  C2    D T 502       6.912   1.226 -11.312  0.75 11.95     0.060 A 
HETATM    7  C3    D T 502       5.521   1.030 -11.243  0.75 13.64     0.014 A 
HETATM    8 CL14   D T 502       7.604   1.438 -12.858  0.75  1.02    -0.082 Cl
HETATM    9  C4    D T 502       4.949   0.828  -9.903  0.75 15.27     0.028 A 
ENDBRANCH   1   2
BRANCH   1  10
HETATM   10  C8    D T 502       4.640   1.648  -6.698  0.75 15.53     0.111 A 
HETATM   11  C9    D T 502       3.925   1.244  -5.551  0.75 16.45     0.081 A 
HETATM   12  C10   D T 502       3.319   2.191  -4.699  0.75 14.07     0.025 A 
HETATM   13 CL16   D T 502       3.768  -0.453  -5.148  0.75  3.69    -0.080 Cl
HETATM   14  C11   D T 502       3.437   3.580  -5.012  0.75 16.23     0.059 A 
HETATM   15  C12   D T 502       4.151   4.023  -6.159  0.75 16.59     0.013 A 
HETATM   16 CL15   D T 502       2.704   4.743  -3.981  0.75  7.17    -0.082 Cl
HETATM   17  C13   D T 502       4.754   3.058  -7.005  0.75 15.83     0.026 A 
ENDBRANCH   1  10
TORSDOF 2
ENDMDL
MODEL 4
REMARK VINA RESULT:    -7.362      2.425      2.963
REMARK INTER + INTRA:          -8.610
REMARK INTER:                  -8.196
REMARK INTRA:                  -0.414
REMARK UNBOUND:                -0.388
REMARK  2 active torsions:
REMARK  status: ('A' for Active; 'I' for Inactive)
REMARK    1  A    between atoms: C5_4  and  O7_13 
REMARK    2  A    between atoms: C8_10  and  O7_13 
ROOT
HETATM    1  O7    D T 502       5.171   3.261  -7.568  0.75 16.91    -0.304 OA
ENDROOT
BRANCH   1   2
HETATM    2  C5    D T 502       4.677   2.426  -6.494  0.75 15.30     0.125 A 
HETATM    3  C6    D T 502       4.841   2.919  -5.153  0.75 14.99     0.154 A 
HETATM    4  C1    D T 502       4.366   2.150  -4.068  0.75 14.19     0.041 A 
HETATM    5  O17   D T 502       5.439   4.104  -4.944  0.75 14.56    -0.188 OA
HETATM    6  C2    D T 502       3.752   0.931  -4.331  0.75 11.95     0.060 A 
HETATM    7  C3    D T 502       3.579   0.414  -5.627  0.75 13.64     0.014 A 
HETATM    8 CL14   D T 502       3.155   0.008  -3.025  0.75  1.02    -0.082 Cl
HETATM    9  C4    D T 502       4.081   1.236  -6.738  0.75 15.27     0.028 A 
ENDBRANCH   1   2
BRANCH   1  10
HETATM   10  C8    D T 502       5.707   2.759  -8.768  0.75 15.53     0.111 A 
HETATM   11  C9    D T 502       7.076   2.417  -8.760  0.75 16.45     0.081 A 
HETATM   12  C10   D T 502       7.705   1.901  -9.912  0.75 14.07     0.025 A 
HETATM   13 CL16   D T 502       8.040   2.625  -7.313  0.75  3.69    -0.080 Cl
HETATM   14  C11   D T 502       6.934   1.724 -11.101  0.75 16.23     0.059 A 
HETATM   15  C12   D T 502       5.552   2.056 -11.146  0.75 16.59     0.013 A 
HETATM   16 CL15   D T 502       7.689   1.094 -12.512  0.75  7.17    -0.082 Cl
HETATM   17  C13   D T 502       4.935   2.575  -9.979  0.75 15.83     0.026 A 
ENDBRANCH   1  10
TORSDOF 2
ENDMDL
MODEL 5
REMARK VINA RESULT:    -7.218      2.250      2.522
REMARK INTER + INTRA:          -8.450
REMARK INTER:                  -7.993
REMARK INTRA:                  -0.457
REMARK UNBOUND:                -0.388
REMARK  2 active torsions:
REMARK  status: ('A' for Active; 'I' for Inactive)
REMARK    1  A    between atoms: C5_4  and  O7_13 
REMARK    2  A    between atoms: C8_10  and  O7_13 
ROOT
HETATM    1  O7    D T 502       6.338   2.794  -7.300  0.75 16.91    -0.304 OA
ENDROOT
BRANCH   1   2
HETATM    2  C5    D T 502       5.568   2.029  -6.343  0.75 15.30     0.125 A 
HETATM    3  C6    D T 502       6.303   1.221  -5.407  0.75 14.99     0.154 A 
HETATM    4  C1    D T 502       5.601   0.464  -4.444  0.75 14.19     0.041 A 
HETATM    5  O17   D T 502       7.645   1.197  -5.454  0.75 14.56    -0.188 OA
HETATM    6  C2    D T 502       4.212   0.521  -4.431  0.75 11.95     0.060 A 
HETATM    7  C3    D T 502       3.460   1.294  -5.333  0.75 13.64     0.014 A 
HETATM    8 CL14   D T 502       3.359  -0.375  -3.254  0.75  1.02    -0.082 Cl
HETATM    9  C4    D T 502       4.216   2.074  -6.324  0.75 15.27     0.028 A 
ENDBRANCH   1   2
BRANCH   1  10
HETATM   10  C8    D T 502       6.599   2.370  -8.616  0.75 15.53     0.111 A 
HETATM   11  C9    D T 502       5.774   2.900  -9.630  0.75 16.45     0.081 A 
HETATM   12  C10   D T 502       5.959   2.540 -10.982  0.75 14.07     0.025 A 
HETATM   13 CL16   D T 502       4.489   4.025  -9.242  0.75  3.69    -0.080 Cl
HETATM   14  C11   D T 502       7.003   1.624 -11.318  0.75 16.23     0.059 A 
HETATM   15  C12   D T 502       7.853   1.072 -10.322  0.75 16.59     0.013 A 
HETATM   16 CL15   D T 502       7.239   1.179 -12.962  0.75  7.17    -0.082 Cl
HETATM   17  C13   D T 502       7.654   1.444  -8.968  0.75 15.83     0.026 A 
ENDBRANCH   1  10
TORSDOF 2
ENDMDL
MODEL 6
REMARK VINA RESULT:    -7.200      3.292      3.734
REMARK INTER + INTRA:          -8.430
REMARK INTER:                  -8.005
REMARK INTRA:                  -0.425
REMARK UNBOUND:                -0.388
REMARK  2 active torsions:
REMARK  status: ('A' for Active; 'I' for Inactive)
REMARK    1  A    between atoms: C5_4  and  O7_13 
REMARK    2  A    between atoms: C8_10  and  O7_13 
ROOT
HETATM    1  O7    D T 502       6.448   1.686  -7.692  0.75 16.91    -0.304 OA
ENDROOT
BRANCH   1   2
HETATM    2  C5    D T 502       7.485   1.696  -6.682  0.75 15.30     0.125 A 
HETATM    3  C6    D T 502       7.407   0.695  -5.652  0.75 14.99     0.154 A 
HETATM    4  C1    D T 502       8.400   0.653  -4.650  0.75 14.19     0.041 A 
HETATM    5  O17   D T 502       6.396  -0.189  -5.655  0.75 14.56    -0.188 OA
HETATM    6  C2    D T 502       9.429   1.587  -4.688  0.75 11.95     0.060 A 
HETATM    7  C3    D T 502       9.536   2.583  -5.675  0.75 13.64     0.014 A 
HETATM    8 CL14   D T 502      10.645   1.526  -3.492  0.75  1.02    -0.082 Cl
HETATM    9  C4    D T 502       8.489   2.603  -6.708  0.75 15.27     0.028 A 
ENDBRANCH   1   2
BRANCH   1  10
HETATM   10  C8    D T 502       6.694   1.523  -9.067  0.75 15.53     0.111 A 
HETATM   11  C9    D T 502       6.036   2.414  -9.941  0.75 16.45     0.081 A 
HETATM   12  C10   D T 502       6.223   2.335 -11.338  0.75 14.07     0.025 A 
HETATM   13 CL16   D T 502       4.964   3.650  -9.318  0.75  3.69    -0.080 Cl
HETATM   14  C11   D T 502       7.094   1.333 -11.865  0.75 16.23     0.059 A 
HETATM   15  C12   D T 502       7.774   0.419 -11.014  0.75 16.59     0.013 A 
HETATM   16 CL15   D T 502       7.330   1.228 -13.565  0.75  7.17    -0.082 Cl
HETATM   17  C13   D T 502       7.575   0.512  -9.612  0.75 15.83     0.026 A 
ENDBRANCH   1  10
TORSDOF 2
ENDMDL
MODEL 7
REMARK VINA RESULT:    -7.072      2.072      2.219
REMARK INTER + INTRA:          -8.286
REMARK INTER:                  -7.824
REMARK INTRA:                  -0.462
REMARK UNBOUND:                -0.388
REMARK  2 active torsions:
REMARK  status: ('A' for Active; 'I' for Inactive)
REMARK    1  A    between atoms: C5_4  and  O7_13 
REMARK    2  A    between atoms: C8_10  and  O7_13 
ROOT
HETATM    1  O7    D T 502       4.125   1.809  -7.053  0.75 16.91    -0.304 OA
ENDROOT
BRANCH   1   2
HETATM    2  C5    D T 502       4.502   2.291  -5.742  0.75 15.30     0.125 A 
HETATM    3  C6    D T 502       4.434   1.353  -4.653  0.75 14.99     0.154 A 
HETATM    4  C1    D T 502       4.803   1.767  -3.356  0.75 14.19     0.041 A 
HETATM    5  O17   D T 502       4.023   0.094  -4.881  0.75 14.56    -0.188 OA
HETATM    6  C2    D T 502       5.224   3.078  -3.167  0.75 11.95     0.060 A 
HETATM    7  C3    D T 502       5.299   4.025  -4.204  0.75 13.64     0.014 A 
HETATM    8 CL14   D T 502       5.693   3.579  -1.604  0.75  1.02    -0.082 Cl
HETATM    9  C4    D T 502       4.910   3.566  -5.546  0.75 15.27     0.028 A 
ENDBRANCH   1   2
BRANCH   1  10
HETATM   10  C8    D T 502       5.047   1.425  -8.043  0.75 15.53     0.111 A 
HETATM   11  C9    D T 502       5.350   2.380  -9.035  0.75 16.45     0.081 A 
HETATM   12  C10   D T 502       6.268   2.092 -10.068  0.75 14.07     0.025 A 
HETATM   13 CL16   D T 502       4.595   3.960  -9.016  0.75  3.69    -0.080 Cl
HETATM   14  C11   D T 502       6.894   0.809 -10.100  0.75 16.23     0.059 A 
HETATM   15  C12   D T 502       6.613  -0.178  -9.116  0.75 16.59     0.013 A 
HETATM   16 CL15   D T 502       8.014   0.446 -11.353  0.75  7.17    -0.082 Cl
HETATM   17  C13   D T 502       5.688   0.128  -8.084  0.75 15.83     0.026 A 
ENDBRANCH   1  10
TORSDOF 2
ENDMDL
MODEL 8
REMARK VINA RESULT:    -6.961      2.037      2.660
REMARK INTER + INTRA:          -8.163
REMARK INTER:                  -7.685
REMARK INTRA:                  -0.478
REMARK UNBOUND:                -0.388
REMARK  2 active torsions:
REMARK  status: ('A' for Active; 'I' for Inactive)
REMARK    1  A    between atoms: C5_4  and  O7_13 
REMARK    2  A    between atoms: C8_10  and  O7_13 
ROOT
HETATM    1  O7    D T 502       5.060   0.886  -5.079  0.75 16.91    -0.304 OA
ENDROOT
BRANCH   1   2
HETATM    2  C5    D T 502       4.484   2.112  -4.569  0.75 15.30     0.125 A 
HETATM    3  C6    D T 502       5.326   2.938  -3.746  0.75 14.99     0.154 A 
HETATM    4  C1    D T 502       4.818   4.151  -3.233  0.75 14.19     0.041 A 
HETATM    5  O17   D T 502       6.584   2.552  -3.477  0.75 14.56    -0.188 OA
HETATM    6  C2    D T 502       3.511   4.512  -3.539  0.75 11.95     0.060 A 
HETATM    7  C3    D T 502       2.657   3.728  -4.335  0.75 13.64     0.014 A 
HETATM    8 CL14   D T 502       2.899   5.989  -2.940  0.75  1.02    -0.082 Cl
HETATM    9  C4    D T 502       3.212   2.471  -4.858  0.75 15.27     0.028 A 
ENDBRANCH   1   2
BRANCH   1  10
HETATM   10  C8    D T 502       5.632   0.761  -6.358  0.75 15.53     0.111 A 
HETATM   11  C9    D T 502       4.846   0.136  -7.349  0.75 16.45     0.081 A 
HETATM   12  C10   D T 502       5.330  -0.032  -8.664  0.75 14.07     0.025 A 
HETATM   13 CL16   D T 502       3.240  -0.454  -6.976  0.75  3.69    -0.080 Cl
HETATM   14  C11   D T 502       6.637   0.444  -8.987  0.75 16.23     0.059 A 
HETATM   15  C12   D T 502       7.456   1.079  -8.014  0.75 16.59     0.013 A 
HETATM   16 CL15   D T 502       7.237   0.246 -10.586  0.75  7.17    -0.082 Cl
HETATM   17  C13   D T 502       6.956   1.239  -6.697  0.75 15.83     0.026 A 
ENDBRANCH   1  10
TORSDOF 2
ENDMDL
MODEL 9
REMARK VINA RESULT:    -6.930      2.368      2.750
REMARK INTER + INTRA:          -8.128
REMARK INTER:                  -7.702
REMARK INTRA:                  -0.426
REMARK UNBOUND:                -0.388
REMARK  2 active torsions:
REMARK  status: ('A' for Active; 'I' for Inactive)
REMARK    1  A    between atoms: C5_4  and  O7_13 
REMARK    2  A    between atoms: C8_10  and  O7_13 
ROOT
HETATM    1  O7    D T 502       4.138   2.304  -6.672  0.75 16.91    -0.304 OA
ENDROOT
BRANCH   1   2
HETATM    2  C5    D T 502       4.543   2.718  -5.346  0.75 15.30     0.125 A 
HETATM    3  C6    D T 502       4.177   4.046  -4.933  0.75 14.99     0.154 A 
HETATM    4  C1    D T 502       4.536   4.495  -3.644  0.75 14.19     0.041 A 
HETATM    5  O17   D T 502       3.495   4.843  -5.772  0.75 14.56    -0.188 OA
HETATM    6  C2    D T 502       5.239   3.635  -2.808  0.75 11.95     0.060 A 
HETATM    7  C3    D T 502       5.619   2.333  -3.178  0.75 13.64     0.014 A 
HETATM    8 CL14   D T 502       5.657   4.165  -1.240  0.75  1.02    -0.082 Cl
HETATM    9  C4    D T 502       5.231   1.890  -4.525  0.75 15.27     0.028 A 
ENDBRANCH   1   2
BRANCH   1  10
HETATM   10  C8    D T 502       5.036   1.893  -7.674  0.75 15.53     0.111 A 
HETATM   11  C9    D T 502       4.714   0.709  -8.370  0.75 16.45     0.081 A 
HETATM   12  C10   D T 502       5.549   0.217  -9.396  0.75 14.07     0.025 A 
HETATM   13 CL16   D T 502       3.263  -0.190  -7.982  0.75  3.69    -0.080 Cl
HETATM   14  C11   D T 502       6.737   0.938  -9.727  0.75 16.23     0.059 A 
HETATM   15  C12   D T 502       7.092   2.134  -9.047  0.75 16.59     0.013 A 
HETATM   16 CL15   D T 502       7.762   0.349 -10.976  0.75  7.17    -0.082 Cl
HETATM   17  C13   D T 502       6.242   2.615  -8.018  0.75 15.83     0.026 A 
ENDBRANCH   1  10
TORSDOF 2
ENDMDL
