MODEL 1
REMARK VINA RESULT:    -8.810      0.000      0.000
REMARK INTER + INTRA:         -22.518
REMARK INTER:                 -18.081
REMARK INTRA:                  -4.437
REMARK UNBOUND:                -4.437
REMARK  19 active torsions:
REMARK  status: ('A' for Active; 'I' for Inactive)
REMARK    1  A    between atoms: C2_2  and  C6_6 
REMARK    2  A    between atoms: C6_6  and  O7_7 
REMARK    3  A    between atoms: O7_7  and  C10_8 
REMARK       I    between atoms: C10_8  and  N11_10 
REMARK    4  A    between atoms: N11_10  and  C12_11 
REMARK    5  A    between atoms: C12_11  and  C13_12 
REMARK    6  A    between atoms: C12_11  and  C26_15 
REMARK    7  A    between atoms: C13_12  and  C14_13 
REMARK    8  A    between atoms: C14_13  and  C15_14 
REMARK    9  A    between atoms: C15_14  and  C44_23 
REMARK   10  A    between atoms: C15_14  and  N58_30 
REMARK   11  A    between atoms: C26_15  and  C28_16 
REMARK   12  A    between atoms: C44_23  and  C45_24 
REMARK       I    between atoms: N58_30  and  C18_33 
REMARK   13  A    between atoms: N20_31  and  C19_32 
REMARK       I    between atoms: N20_31  and  C21_38 
REMARK   14  A    between atoms: C19_32  and  C18_33 
REMARK   15  A    between atoms: C19_32  and  C62_35 
REMARK       I    between atoms: C21_38  and  N74_39 
REMARK   16  A    between atoms: N74_39  and  C75_40 
REMARK   17  A    between atoms: C75_40  and  C77_42 
REMARK   18  A    between atoms: C82_45  and  C85@A_47 
REMARK   19  A    between atoms: C82_45  and  C85@B_48 
ROOT
HETATM    1  C15   D T1001       2.759  11.030   4.147  1.00  8.25     0.113 C 
ENDROOT
BRANCH   1   2
HETATM    2  C14   D T1001       2.462  10.778   2.652  1.00  7.75     0.060 C 
BRANCH   2   3
HETATM    3  C13   D T1001       3.570  10.027   1.912  1.00  7.71     0.177 C 
HETATM    4  O41   D T1001       3.949  10.716   0.716  1.00  8.53    -0.221 OA
BRANCH   3   5
HETATM    5  C12   D T1001       3.224   8.555   1.589  1.00  8.17     0.143 C 
BRANCH   5   6
HETATM    6  N11   D T1001       2.873   8.423   0.138  1.00  8.56    -0.211 NA
HETATM    7  C10   D T1001       1.576   8.125  -0.179  1.00  9.54     0.384 C 
HETATM    8  O24   D T1001       0.597   8.106   0.545  1.00 10.40    -0.236 OA
BRANCH   7   9
HETATM    9  O7    D T1001       1.499   7.813  -1.501  1.00 13.31    -0.278 OA
BRANCH   9  10
HETATM   10  C6    D T1001       1.359   9.001  -2.323  1.00 21.32     0.188 C 
BRANCH  10  11
HETATM   11  C2    D T1001       0.106   9.725  -2.056  1.00 19.63     0.058 A 
HETATM   12  C1    D T1001      -0.052  11.029  -1.602  1.00 18.64     0.104 A 
HETATM   13  N5    D T1001      -1.367  11.453  -1.437  1.00 24.03    -0.235 NA
HETATM   14  C4    D T1001      -2.213  10.486  -1.755  1.00 26.08     0.134 A 
HETATM   15  S3    D T1001      -1.437   9.046  -2.267  1.00 24.78    -0.066 SA
ENDBRANCH  10  11
ENDBRANCH   9  10
ENDBRANCH   7   9
ENDBRANCH   5   6
BRANCH   5  16
HETATM   16  C26   D T1001       4.400   7.588   1.926  1.00  9.89     0.053 C 
BRANCH  16  17
HETATM   17  C28   D T1001       5.699   7.974   1.262  1.00 10.53    -0.020 A 
HETATM   18  C31   D T1001       6.793   8.349   2.064  1.00 10.31    -0.004 A 
HETATM   19  C32   D T1001       8.018   8.700   1.447  1.00 11.41    -0.000 A 
HETATM   20  C33   D T1001       8.138   8.672   0.053  1.00 13.64    -0.000 A 
HETATM   21  C34   D T1001       7.054   8.291  -0.731  1.00 13.54    -0.000 A 
HETATM   22  C35   D T1001       5.825   7.950  -0.133  1.00 13.00    -0.004 A 
ENDBRANCH  16  17
ENDBRANCH   5  16
ENDBRANCH   3   5
ENDBRANCH   2   3
ENDBRANCH   1   2
BRANCH   1  23
HETATM   23  C44   D T1001       2.348   9.850   5.053  1.00  9.33     0.051 C 
BRANCH  23  24
HETATM   24  C45   D T1001       3.369   8.751   5.290  1.00  9.99    -0.020 A 
HETATM   25  C48   D T1001       3.007   7.436   5.556  1.00 10.42    -0.004 A 
HETATM   26  C49   D T1001       3.962   6.447   5.794  1.00 12.60    -0.000 A 
HETATM   27  C50   D T1001       5.321   6.803   5.775  1.00 12.24    -0.000 A 
HETATM   28  C51   D T1001       5.710   8.097   5.505  1.00 13.41    -0.000 A 
HETATM   29  C52   D T1001       4.735   9.063   5.263  1.00 11.46    -0.004 A 
ENDBRANCH  23  24
ENDBRANCH   1  23
BRANCH   1  30
HETATM   30  N58   D T1001       2.068  12.283   4.494  1.00  8.28    -0.238 NA
HETATM   31  C18   D T1001       2.823  13.418   4.649  1.00  8.88     0.274 C 
HETATM   32  O61   D T1001       4.040  13.407   4.524  1.00 11.15    -0.268 OA
BRANCH  31  33
HETATM   33  C19   D T1001       1.985  14.658   5.041  1.00  8.22     0.188 C 
BRANCH  33  34
HETATM   34  N20   D T1001       2.351  14.941   6.452  1.00  9.06    -0.211 NA
HETATM   35  C21   D T1001       1.632  14.297   7.445  1.00  7.77     0.343 C 
HETATM   36  N74   D T1001       1.992  14.642   8.749  1.00  9.58    -0.294 N 
HETATM   37  O76   D T1001       0.680  13.566   7.182  1.00  8.28    -0.245 OA
HETATM   38  C95   D T1001       3.026  15.618   9.079  1.00 12.13     0.131 C 
BRANCH  36  39
HETATM   39  C75   D T1001       1.204  14.083   9.844  1.00 11.33     0.152 C 
BRANCH  39  40
HETATM   40  C77   D T1001       1.777  12.815  10.394  1.00 11.34     0.083 A 
HETATM   41  C80   D T1001       1.901  12.546  11.736  1.00 12.89     0.049 A 
HETATM   42  S81   D T1001       2.585  10.995  11.942  1.00 18.25    -0.091 SA
HETATM   43  C82   D T1001       2.666  10.786  10.245  1.00 17.46     0.127 A 
HETATM   44  N83   D T1001       2.235  11.805   9.569  1.00 15.61    -0.266 NA
BRANCH  43  45
HETATM   45  C85A  D T1001       3.224   9.482   9.724  0.65 20.47     0.030 C 
HETATM   46  C86A  D T1001       2.154   8.640   9.060  0.65 21.84     0.003 C 
HETATM   47  C90A  D T1001       4.435   9.724   8.815  0.65 25.77     0.003 C 
ENDBRANCH  43  45
BRANCH  43  48
HETATM   48  C85B  D T1001       3.213   9.508   9.666  0.35 20.27     0.030 C 
HETATM   49  C86B  D T1001       2.130   8.622   9.065  0.35 19.26     0.003 C 
HETATM   50  C90B  D T1001       4.442   9.663   8.798  0.35 21.00     0.003 C 
ENDBRANCH  43  48
ENDBRANCH  39  40
ENDBRANCH  36  39
ENDBRANCH  33  34
BRANCH  33  51
HETATM   51  C62   D T1001       2.392  15.814   4.093  1.00  9.40     0.032 C 
HETATM   52  C64   D T1001       1.152  16.577   3.644  1.00 11.21     0.003 C 
HETATM   53  C68   D T1001       3.354  16.758   4.846  1.00 11.67     0.003 C 
ENDBRANCH  33  51
ENDBRANCH  31  33
ENDBRANCH   1  30
TORSDOF 19
ENDMDL
MODEL 2
REMARK VINA RESULT:    -8.787      3.086      7.580
REMARK INTER + INTRA:         -22.471
REMARK INTER:                 -16.752
REMARK INTRA:                  -5.718
REMARK UNBOUND:                -4.437
REMARK  19 active torsions:
REMARK  status: ('A' for Active; 'I' for Inactive)
REMARK    1  A    between atoms: C2_2  and  C6_6 
REMARK    2  A    between atoms: C6_6  and  O7_7 
REMARK    3  A    between atoms: O7_7  and  C10_8 
REMARK       I    between atoms: C10_8  and  N11_10 
REMARK    4  A    between atoms: N11_10  and  C12_11 
REMARK    5  A    between atoms: C12_11  and  C13_12 
REMARK    6  A    between atoms: C12_11  and  C26_15 
REMARK    7  A    between atoms: C13_12  and  C14_13 
REMARK    8  A    between atoms: C14_13  and  C15_14 
REMARK    9  A    between atoms: C15_14  and  C44_23 
REMARK   10  A    between atoms: C15_14  and  N58_30 
REMARK   11  A    between atoms: C26_15  and  C28_16 
REMARK   12  A    between atoms: C44_23  and  C45_24 
REMARK       I    between atoms: N58_30  and  C18_33 
REMARK   13  A    between atoms: N20_31  and  C19_32 
REMARK       I    between atoms: N20_31  and  C21_38 
REMARK   14  A    between atoms: C19_32  and  C18_33 
REMARK   15  A    between atoms: C19_32  and  C62_35 
REMARK       I    between atoms: C21_38  and  N74_39 
REMARK   16  A    between atoms: N74_39  and  C75_40 
REMARK   17  A    between atoms: C75_40  and  C77_42 
REMARK   18  A    between atoms: C82_45  and  C85@A_47 
REMARK   19  A    between atoms: C82_45  and  C85@B_48 
ROOT
HETATM    1  C15   D T1001       4.941   7.405   4.456  1.00  8.25     0.113 C 
ENDROOT
BRANCH   1   2
HETATM    2  C14   D T1001       5.755   8.303   5.414  1.00  7.75     0.060 C 
BRANCH   2   3
HETATM    3  C13   D T1001       5.482   9.800   5.250  1.00  7.71     0.177 C 
HETATM    4  O41   D T1001       6.594  10.461   4.638  1.00  8.53    -0.221 OA
BRANCH   3   5
HETATM    5  C12   D T1001       5.098  10.516   6.565  1.00  8.17     0.143 C 
BRANCH   5   6
HETATM    6  N11   D T1001       5.153  12.001   6.370  1.00  8.56    -0.211 NA
HETATM    7  C10   D T1001       5.890  12.734   7.260  1.00  9.54     0.384 C 
HETATM    8  O24   D T1001       6.661  12.345   8.117  1.00 10.40    -0.236 OA
BRANCH   7   9
HETATM    9  O7    D T1001       5.632  14.056   7.071  1.00 13.31    -0.278 OA
BRANCH   9  10
HETATM   10  C6    D T1001       6.173  14.531   5.811  1.00 21.32     0.188 C 
BRANCH  10  11
HETATM   11  C2    D T1001       7.624  14.770   5.876  1.00 19.63     0.058 A 
HETATM   12  C1    D T1001       8.635  14.105   5.193  1.00 18.64     0.104 A 
HETATM   13  N5    D T1001       9.929  14.547   5.454  1.00 24.03    -0.235 NA
HETATM   14  C4    D T1001       9.915  15.538   6.331  1.00 26.08     0.134 A 
HETATM   15  S3    D T1001       8.339  15.961   6.855  1.00 24.78    -0.066 SA
ENDBRANCH  10  11
ENDBRANCH   9  10
ENDBRANCH   7   9
ENDBRANCH   5   6
BRANCH   5  16
HETATM   16  C26   D T1001       3.676  10.112   7.060  1.00  9.89     0.053 C 
BRANCH  16  17
HETATM   17  C28   D T1001       3.641   9.714   8.515  1.00 10.53    -0.020 A 
HETATM   18  C31   D T1001       2.523   9.015   9.007  1.00 10.31    -0.004 A 
HETATM   19  C32   D T1001       2.490   8.629  10.368  1.00 11.41    -0.000 A 
HETATM   20  C33   D T1001       3.560   8.940  11.215  1.00 13.64    -0.000 A 
HETATM   21  C34   D T1001       4.665   9.624  10.718  1.00 13.54    -0.000 A 
HETATM   22  C35   D T1001       4.708  10.025   9.369  1.00 13.00    -0.004 A 
ENDBRANCH  16  17
ENDBRANCH   5  16
ENDBRANCH   3   5
ENDBRANCH   2   3
ENDBRANCH   1   2
BRANCH   1  23
HETATM   23  C44   D T1001       5.831   6.568   3.511  1.00  9.33     0.051 C 
BRANCH  23  24
HETATM   24  C45   D T1001       6.246   7.192   2.191  1.00  9.99    -0.020 A 
HETATM   25  C48   D T1001       7.332   8.051   2.076  1.00 10.42    -0.004 A 
HETATM   26  C49   D T1001       7.681   8.633   0.857  1.00 12.60    -0.000 A 
HETATM   27  C50   D T1001       6.900   8.345  -0.275  1.00 12.24    -0.000 A 
HETATM   28  C51   D T1001       5.822   7.491  -0.193  1.00 13.41    -0.000 A 
HETATM   29  C52   D T1001       5.501   6.918   1.036  1.00 11.46    -0.004 A 
ENDBRANCH  23  24
ENDBRANCH   1  23
BRANCH   1  30
HETATM   30  N58   D T1001       4.028   8.305   3.731  1.00  8.28    -0.238 NA
HETATM   31  C18   D T1001       2.698   8.285   4.066  1.00  8.88     0.274 C 
HETATM   32  O61   D T1001       2.260   7.536   4.929  1.00 11.15    -0.268 OA
BRANCH  31  33
HETATM   33  C19   D T1001       1.841   9.251   3.214  1.00  8.22     0.188 C 
BRANCH  33  34
HETATM   34  N20   D T1001       2.201  10.609   3.691  1.00  9.06    -0.211 NA
HETATM   35  C21   D T1001       1.214  11.356   4.312  1.00  7.77     0.343 C 
HETATM   36  N74   D T1001       1.602  12.642   4.694  1.00  9.58    -0.294 N 
HETATM   37  O76   D T1001       0.061  10.944   4.412  1.00  8.28    -0.245 OA
HETATM   38  C95   D T1001       2.930  13.199   4.453  1.00 12.13     0.131 C 
BRANCH  36  39
HETATM   39  C75   D T1001       0.582  13.522   5.257  1.00 11.33     0.152 C 
BRANCH  39  40
HETATM   40  C77   D T1001       0.717  13.709   6.735  1.00 11.34     0.083 A 
HETATM   41  C80   D T1001      -0.123  14.491   7.491  1.00 12.89     0.049 A 
HETATM   42  S81   D T1001       0.362  14.428   9.126  1.00 18.25    -0.091 SA
HETATM   43  C82   D T1001       1.646  13.370   8.723  1.00 17.46     0.127 A 
HETATM   44  N83   D T1001       1.724  13.098   7.458  1.00 15.61    -0.266 NA
BRANCH  43  45
HETATM   45  C85A  D T1001       2.536  12.885   9.844  0.65 20.47     0.030 C 
HETATM   46  C86A  D T1001       3.414  13.995  10.384  0.65 21.84     0.003 C 
HETATM   47  C90A  D T1001       1.714  12.194  10.940  0.65 25.77     0.003 C 
ENDBRANCH  43  45
BRANCH  43  48
HETATM   48  C85B  D T1001       2.567  12.854   9.797  0.35 20.27     0.030 C 
HETATM   49  C86B  D T1001       3.703  13.818  10.112  0.35 19.26     0.003 C 
HETATM   50  C90B  D T1001       1.883  12.278  11.017  0.35 21.00     0.003 C 
ENDBRANCH  43  48
ENDBRANCH  39  40
ENDBRANCH  36  39
ENDBRANCH  33  34
BRANCH  33  51
HETATM   51  C62   D T1001       2.233   9.034   1.730  1.00  9.40     0.032 C 
HETATM   52  C64   D T1001       0.985   8.759   0.900  1.00 11.21     0.003 C 
HETATM   53  C68   D T1001       2.948  10.301   1.215  1.00 11.67     0.003 C 
ENDBRANCH  33  51
ENDBRANCH  31  33
ENDBRANCH   1  30
TORSDOF 19
ENDMDL
MODEL 3
REMARK VINA RESULT:    -8.746      2.252      9.626
REMARK INTER + INTRA:         -22.386
REMARK INTER:                 -20.025
REMARK INTRA:                  -2.361
REMARK UNBOUND:                -4.437
REMARK  19 active torsions:
REMARK  status: ('A' for Active; 'I' for Inactive)
REMARK    1  A    between atoms: C2_2  and  C6_6 
REMARK    2  A    between atoms: C6_6  and  O7_7 
REMARK    3  A    between atoms: O7_7  and  C10_8 
REMARK       I    between atoms: C10_8  and  N11_10 
REMARK    4  A    between atoms: N11_10  and  C12_11 
REMARK    5  A    between atoms: C12_11  and  C13_12 
REMARK    6  A    between atoms: C12_11  and  C26_15 
REMARK    7  A    between atoms: C13_12  and  C14_13 
REMARK    8  A    between atoms: C14_13  and  C15_14 
REMARK    9  A    between atoms: C15_14  and  C44_23 
REMARK   10  A    between atoms: C15_14  and  N58_30 
REMARK   11  A    between atoms: C26_15  and  C28_16 
REMARK   12  A    between atoms: C44_23  and  C45_24 
REMARK       I    between atoms: N58_30  and  C18_33 
REMARK   13  A    between atoms: N20_31  and  C19_32 
REMARK       I    between atoms: N20_31  and  C21_38 
REMARK   14  A    between atoms: C19_32  and  C18_33 
REMARK   15  A    between atoms: C19_32  and  C62_35 
REMARK       I    between atoms: C21_38  and  N74_39 
REMARK   16  A    between atoms: N74_39  and  C75_40 
REMARK   17  A    between atoms: C75_40  and  C77_42 
REMARK   18  A    between atoms: C82_45  and  C85@A_47 
REMARK   19  A    between atoms: C82_45  and  C85@B_48 
ROOT
HETATM    1  C15   D T1001       4.982   7.699   4.499  1.00  8.25     0.113 C 
ENDROOT
BRANCH   1   2
HETATM    2  C14   D T1001       5.657   8.708   5.454  1.00  7.75     0.060 C 
BRANCH   2   3
HETATM    3  C13   D T1001       5.228  10.160   5.234  1.00  7.71     0.177 C 
HETATM    4  O41   D T1001       6.349  10.981   4.890  1.00  8.53    -0.221 OA
BRANCH   3   5
HETATM    5  C12   D T1001       4.465  10.778   6.428  1.00  8.17     0.143 C 
BRANCH   5   6
HETATM    6  N11   D T1001       3.799  12.051   6.002  1.00  8.56    -0.211 NA
HETATM    7  C10   D T1001       3.735  13.072   6.911  1.00  9.54     0.384 C 
HETATM    8  O24   D T1001       4.289  13.171   7.990  1.00 10.40    -0.236 OA
BRANCH   7   9
HETATM    9  O7    D T1001       2.902  14.038   6.438  1.00 13.31    -0.278 OA
BRANCH   9  10
HETATM   10  C6    D T1001       1.551  13.539   6.259  1.00 21.32     0.188 C 
BRANCH  10  11
HETATM   11  C2    D T1001       0.546  14.392   6.912  1.00 19.63     0.058 A 
HETATM   12  C1    D T1001      -0.272  15.353   6.331  1.00 18.64     0.104 A 
HETATM   13  N5    D T1001      -1.136  16.013   7.200  1.00 24.03    -0.235 NA
HETATM   14  C4    D T1001      -0.982  15.569   8.438  1.00 26.08     0.134 A 
HETATM   15  S3    D T1001       0.204  14.340   8.576  1.00 24.78    -0.066 SA
ENDBRANCH  10  11
ENDBRANCH   9  10
ENDBRANCH   7   9
ENDBRANCH   5   6
BRANCH   5  16
HETATM   16  C26   D T1001       3.395   9.804   7.008  1.00  9.89     0.053 C 
BRANCH  16  17
HETATM   17  C28   D T1001       3.531   9.585   8.495  1.00 10.53    -0.020 A 
HETATM   18  C31   D T1001       4.710   9.996   9.142  1.00 10.31    -0.004 A 
HETATM   19  C32   D T1001       4.838   9.804  10.539  1.00 11.41    -0.000 A 
HETATM   20  C33   D T1001       3.799   9.212  11.267  1.00 13.64    -0.000 A 
HETATM   21  C34   D T1001       2.633   8.817  10.619  1.00 13.54    -0.000 A 
HETATM   22  C35   D T1001       2.496   8.990   9.229  1.00 13.00    -0.004 A 
ENDBRANCH  16  17
ENDBRANCH   5  16
ENDBRANCH   3   5
ENDBRANCH   2   3
ENDBRANCH   1   2
BRANCH   1  23
HETATM   23  C44   D T1001       5.995   6.891   3.659  1.00  9.33     0.051 C 
BRANCH  23  24
HETATM   24  C45   D T1001       6.311   7.389   2.260  1.00  9.99    -0.020 A 
HETATM   25  C48   D T1001       5.558   7.032   1.148  1.00 10.42    -0.004 A 
HETATM   26  C49   D T1001       5.881   7.484  -0.132  1.00 12.60    -0.000 A 
HETATM   27  C50   D T1001       7.007   8.310  -0.291  1.00 12.24    -0.000 A 
HETATM   28  C51   D T1001       7.767   8.687   0.794  1.00 13.41    -0.000 A 
HETATM   29  C52   D T1001       7.416   8.228   2.062  1.00 11.46    -0.004 A 
ENDBRANCH  23  24
ENDBRANCH   1  23
BRANCH   1  30
HETATM   30  N58   D T1001       4.050   8.482   3.671  1.00  8.28    -0.238 NA
HETATM   31  C18   D T1001       2.703   8.290   3.852  1.00  8.88     0.274 C 
HETATM   32  O61   D T1001       2.269   7.482   4.662  1.00 11.15    -0.268 OA
BRANCH  31  33
HETATM   33  C19   D T1001       1.833   9.147   2.904  1.00  8.22     0.188 C 
BRANCH  33  34
HETATM   34  N20   D T1001       1.633   8.306   1.697  1.00  9.06    -0.211 NA
HETATM   35  C21   D T1001       1.804   8.904   0.460  1.00  7.77     0.343 C 
HETATM   36  N74   D T1001       1.555   8.073  -0.635  1.00  9.58    -0.294 N 
HETATM   37  O76   D T1001       2.050  10.104   0.352  1.00  8.28    -0.245 OA
HETATM   38  C95   D T1001       1.124   6.684  -0.523  1.00 12.13     0.131 C 
BRANCH  36  39
HETATM   39  C75   D T1001       1.613   8.667  -1.967  1.00 11.33     0.152 C 
BRANCH  39  40
HETATM   40  C77   D T1001       0.312   9.263  -2.404  1.00 11.34     0.083 A 
HETATM   41  C80   D T1001       0.206  10.359  -3.225  1.00 12.89     0.049 A 
HETATM   42  S81   D T1001      -1.444  10.709  -3.492  1.00 18.25    -0.091 SA
HETATM   43  C82   D T1001      -1.902   9.388  -2.506  1.00 17.46     0.127 A 
HETATM   44  N83   D T1001      -0.901   8.741  -1.996  1.00 15.61    -0.266 NA
BRANCH  43  45
HETATM   45  C85A  D T1001      -3.380   9.123  -2.329  0.65 20.47     0.030 C 
HETATM   46  C86A  D T1001      -3.650   7.682  -1.947  0.65 21.84     0.003 C 
HETATM   47  C90A  D T1001      -4.004  10.122  -1.348  0.65 25.77     0.003 C 
ENDBRANCH  43  45
BRANCH  43  48
HETATM   48  C85B  D T1001      -3.360   9.074  -2.291  0.35 20.27     0.030 C 
HETATM   49  C86B  D T1001      -3.576   7.805  -1.478  0.35 19.26     0.003 C 
HETATM   50  C90B  D T1001      -4.217  10.243  -1.860  0.35 21.00     0.003 C 
ENDBRANCH  43  48
ENDBRANCH  39  40
ENDBRANCH  36  39
ENDBRANCH  33  34
BRANCH  33  51
HETATM   51  C62   D T1001       0.498   9.440   3.634  1.00  9.40     0.032 C 
HETATM   52  C64   D T1001       0.681  10.603   4.602  1.00 11.21     0.003 C 
HETATM   53  C68   D T1001      -0.578   9.786   2.583  1.00 11.67     0.003 C 
ENDBRANCH  33  51
ENDBRANCH  31  33
ENDBRANCH   1  30
TORSDOF 19
ENDMDL
MODEL 4
REMARK VINA RESULT:    -8.731      3.059      6.035
REMARK INTER + INTRA:         -22.355
REMARK INTER:                 -20.224
REMARK INTRA:                  -2.131
REMARK UNBOUND:                -4.437
REMARK  19 active torsions:
REMARK  status: ('A' for Active; 'I' for Inactive)
REMARK    1  A    between atoms: C2_2  and  C6_6 
REMARK    2  A    between atoms: C6_6  and  O7_7 
REMARK    3  A    between atoms: O7_7  and  C10_8 
REMARK       I    between atoms: C10_8  and  N11_10 
REMARK    4  A    between atoms: N11_10  and  C12_11 
REMARK    5  A    between atoms: C12_11  and  C13_12 
REMARK    6  A    between atoms: C12_11  and  C26_15 
REMARK    7  A    between atoms: C13_12  and  C14_13 
REMARK    8  A    between atoms: C14_13  and  C15_14 
REMARK    9  A    between atoms: C15_14  and  C44_23 
REMARK   10  A    between atoms: C15_14  and  N58_30 
REMARK   11  A    between atoms: C26_15  and  C28_16 
REMARK   12  A    between atoms: C44_23  and  C45_24 
REMARK       I    between atoms: N58_30  and  C18_33 
REMARK   13  A    between atoms: N20_31  and  C19_32 
REMARK       I    between atoms: N20_31  and  C21_38 
REMARK   14  A    between atoms: C19_32  and  C18_33 
REMARK   15  A    between atoms: C19_32  and  C62_35 
REMARK       I    between atoms: C21_38  and  N74_39 
REMARK   16  A    between atoms: N74_39  and  C75_40 
REMARK   17  A    between atoms: C75_40  and  C77_42 
REMARK   18  A    between atoms: C82_45  and  C85@A_47 
REMARK   19  A    between atoms: C82_45  and  C85@B_48 
ROOT
HETATM    1  C15   D T1001       3.905   8.584  -0.045  1.00  8.25     0.113 C 
ENDROOT
BRANCH   1   2
HETATM    2  C14   D T1001       2.580   8.326  -0.797  1.00  7.75     0.060 C 
BRANCH   2   3
HETATM    3  C13   D T1001       2.041   9.544  -1.550  1.00  7.71     0.177 C 
HETATM    4  O41   D T1001       1.778  10.628  -0.654  1.00  8.53    -0.221 OA
BRANCH   3   5
HETATM    5  C12   D T1001       0.789   9.250  -2.407  1.00  8.17     0.143 C 
BRANCH   5   6
HETATM    6  N11   D T1001       1.204   8.796  -3.774  1.00  8.56    -0.211 NA
HETATM    7  C10   D T1001       1.273   9.739  -4.764  1.00  9.54     0.384 C 
HETATM    8  O24   D T1001       1.203  10.950  -4.672  1.00 10.40    -0.236 OA
BRANCH   7   9
HETATM    9  O7    D T1001       1.429   9.116  -5.963  1.00 13.31    -0.278 OA
BRANCH   9  10
HETATM   10  C6    D T1001       2.381   9.812  -6.808  1.00 21.32     0.188 C 
BRANCH  10  11
HETATM   11  C2    D T1001       1.779  10.278  -8.067  1.00 19.63     0.058 A 
HETATM   12  C1    D T1001       0.555   9.919  -8.618  1.00 18.64     0.104 A 
HETATM   13  N5    D T1001       0.241  10.522  -9.832  1.00 24.03    -0.235 NA
HETATM   14  C4    D T1001       1.214  11.334 -10.215  1.00 26.08     0.134 A 
HETATM   15  S3    D T1001       2.525  11.391  -9.113  1.00 24.78    -0.066 SA
ENDBRANCH  10  11
ENDBRANCH   9  10
ENDBRANCH   7   9
ENDBRANCH   5   6
BRANCH   5  16
HETATM   16  C26   D T1001      -0.124   8.166  -1.758  1.00  9.89     0.053 C 
BRANCH  16  17
HETATM   17  C28   D T1001      -1.444   8.711  -1.271  1.00 10.53    -0.020 A 
HETATM   18  C31   D T1001      -2.544   8.727  -2.148  1.00 10.31    -0.004 A 
HETATM   19  C32   D T1001      -3.788   9.227  -1.693  1.00 11.41    -0.000 A 
HETATM   20  C33   D T1001      -3.921   9.698  -0.382  1.00 13.64    -0.000 A 
HETATM   21  C34   D T1001      -2.830   9.670   0.482  1.00 13.54    -0.000 A 
HETATM   22  C35   D T1001      -1.583   9.187   0.040  1.00 13.00    -0.004 A 
ENDBRANCH  16  17
ENDBRANCH   5  16
ENDBRANCH   3   5
ENDBRANCH   2   3
ENDBRANCH   1   2
BRANCH   1  23
HETATM   23  C44   D T1001       5.021   7.588  -0.427  1.00  9.33     0.051 C 
BRANCH  23  24
HETATM   24  C45   D T1001       6.458   8.005  -0.173  1.00  9.99    -0.020 A 
HETATM   25  C48   D T1001       7.392   8.140  -1.194  1.00 10.42    -0.004 A 
HETATM   26  C49   D T1001       8.714   8.501  -0.934  1.00 12.60    -0.000 A 
HETATM   27  C50   D T1001       9.105   8.720   0.398  1.00 12.24    -0.000 A 
HETATM   28  C51   D T1001       8.200   8.601   1.429  1.00 13.41    -0.000 A 
HETATM   29  C52   D T1001       6.883   8.247   1.141  1.00 11.46    -0.004 A 
ENDBRANCH  23  24
ENDBRANCH   1  23
BRANCH   1  30
HETATM   30  N58   D T1001       3.573   8.547   1.390  1.00  8.28    -0.238 NA
HETATM   31  C18   D T1001       3.753   9.690   2.126  1.00  8.88     0.274 C 
HETATM   32  O61   D T1001       4.193  10.717   1.628  1.00 11.15    -0.268 OA
BRANCH  31  33
HETATM   33  C19   D T1001       3.398   9.512   3.621  1.00  8.22     0.188 C 
BRANCH  33  34
HETATM   34  N20   D T1001       3.275  10.891   4.156  1.00  9.06    -0.211 NA
HETATM   35  C21   D T1001       3.995  11.207   5.296  1.00  7.77     0.343 C 
HETATM   36  N74   D T1001       3.799  12.504   5.775  1.00  9.58    -0.294 N 
HETATM   37  O76   D T1001       4.665  10.365   5.889  1.00  8.28    -0.245 OA
HETATM   38  C95   D T1001       2.896  13.473   5.162  1.00 12.13     0.131 C 
BRANCH  36  39
HETATM   39  C75   D T1001       4.444  12.870   7.033  1.00 11.33     0.152 C 
BRANCH  39  40
HETATM   40  C77   D T1001       3.682  12.419   8.238  1.00 11.34     0.083 A 
HETATM   41  C80   D T1001       2.996  13.267   9.075  1.00 12.89     0.049 A 
HETATM   42  S81   D T1001       2.255  12.359  10.317  1.00 18.25    -0.091 SA
HETATM   43  C82   D T1001       2.890  10.911   9.662  1.00 17.46     0.127 A 
HETATM   44  N83   D T1001       3.620  11.088   8.605  1.00 15.61    -0.266 NA
BRANCH  43  45
HETATM   45  C85A  D T1001       2.554   9.615  10.365  0.65 20.47     0.030 C 
HETATM   46  C86A  D T1001       2.029   8.573   9.400  0.65 21.84     0.003 C 
HETATM   47  C90A  D T1001       3.745   9.112  11.189  0.65 25.77     0.003 C 
ENDBRANCH  43  45
BRANCH  43  48
HETATM   48  C85B  D T1001       2.591   9.589  10.319  0.35 20.27     0.030 C 
HETATM   49  C86B  D T1001       2.015   8.566   9.349  0.35 19.26     0.003 C 
HETATM   50  C90B  D T1001       3.682   9.050  11.216  0.35 21.00     0.003 C 
ENDBRANCH  43  48
ENDBRANCH  39  40
ENDBRANCH  36  39
ENDBRANCH  33  34
BRANCH  33  51
HETATM   51  C62   D T1001       2.056   8.741   3.692  1.00  9.40     0.032 C 
HETATM   52  C64   D T1001       1.955   7.996   5.018  1.00 11.21     0.003 C 
HETATM   53  C68   D T1001       0.895   9.750   3.559  1.00 11.67     0.003 C 
ENDBRANCH  33  51
ENDBRANCH  31  33
ENDBRANCH   1  30
TORSDOF 19
ENDMDL
MODEL 5
REMARK VINA RESULT:    -8.710      2.667      9.480
REMARK INTER + INTRA:         -22.313
REMARK INTER:                 -20.018
REMARK INTRA:                  -2.295
REMARK UNBOUND:                -4.437
REMARK  19 active torsions:
REMARK  status: ('A' for Active; 'I' for Inactive)
REMARK    1  A    between atoms: C2_2  and  C6_6 
REMARK    2  A    between atoms: C6_6  and  O7_7 
REMARK    3  A    between atoms: O7_7  and  C10_8 
REMARK       I    between atoms: C10_8  and  N11_10 
REMARK    4  A    between atoms: N11_10  and  C12_11 
REMARK    5  A    between atoms: C12_11  and  C13_12 
REMARK    6  A    between atoms: C12_11  and  C26_15 
REMARK    7  A    between atoms: C13_12  and  C14_13 
REMARK    8  A    between atoms: C14_13  and  C15_14 
REMARK    9  A    between atoms: C15_14  and  C44_23 
REMARK   10  A    between atoms: C15_14  and  N58_30 
REMARK   11  A    between atoms: C26_15  and  C28_16 
REMARK   12  A    between atoms: C44_23  and  C45_24 
REMARK       I    between atoms: N58_30  and  C18_33 
REMARK   13  A    between atoms: N20_31  and  C19_32 
REMARK       I    between atoms: N20_31  and  C21_38 
REMARK   14  A    between atoms: C19_32  and  C18_33 
REMARK   15  A    between atoms: C19_32  and  C62_35 
REMARK       I    between atoms: C21_38  and  N74_39 
REMARK   16  A    between atoms: N74_39  and  C75_40 
REMARK   17  A    between atoms: C75_40  and  C77_42 
REMARK   18  A    between atoms: C82_45  and  C85@A_47 
REMARK   19  A    between atoms: C82_45  and  C85@B_48 
ROOT
HETATM    1  C15   D T1001       3.984   9.011   6.498  1.00  8.25     0.113 C 
ENDROOT
BRANCH   1   2
HETATM    2  C14   D T1001       4.089   9.741   7.856  1.00  7.75     0.060 C 
BRANCH   2   3
HETATM    3  C13   D T1001       3.330   9.056   8.994  1.00  7.71     0.177 C 
HETATM    4  O41   D T1001       2.046   8.600   8.555  1.00  8.53    -0.221 OA
BRANCH   3   5
HETATM    5  C12   D T1001       3.178   9.928  10.262  1.00  8.17     0.143 C 
BRANCH   5   6
HETATM    6  N11   D T1001       2.050  10.898  10.079  1.00  8.56    -0.211 NA
HETATM    7  C10   D T1001       2.368  12.213   9.876  1.00  9.54     0.384 C 
HETATM    8  O24   D T1001       3.456  12.712   9.656  1.00 10.40    -0.236 OA
BRANCH   7   9
HETATM    9  O7    D T1001       1.238  12.965   9.970  1.00 13.31    -0.278 OA
BRANCH   9  10
HETATM   10  C6    D T1001       1.074  13.829   8.816  1.00 21.32     0.188 C 
BRANCH  10  11
HETATM   11  C2    D T1001      -0.300  14.340   8.687  1.00 19.63     0.058 A 
HETATM   12  C1    D T1001      -1.196  14.658   9.700  1.00 18.64     0.104 A 
HETATM   13  N5    D T1001      -2.439  15.123   9.280  1.00 24.03    -0.235 NA
HETATM   14  C4    D T1001      -2.502  15.158   7.958  1.00 26.08     0.134 A 
HETATM   15  S3    D T1001      -1.059  14.636   7.195  1.00 24.78    -0.066 SA
ENDBRANCH  10  11
ENDBRANCH   9  10
ENDBRANCH   7   9
ENDBRANCH   5   6
BRANCH   5  16
HETATM   16  C26   D T1001       2.919   9.069  11.537  1.00  9.89     0.053 C 
BRANCH  16  17
HETATM   17  C28   D T1001       2.843   9.887  12.803  1.00 10.53    -0.020 A 
HETATM   18  C31   D T1001       3.715  10.979  12.965  1.00 10.31    -0.004 A 
HETATM   19  C32   D T1001       3.640  11.758  14.145  1.00 11.41    -0.000 A 
HETATM   20  C33   D T1001       2.706  11.443  15.138  1.00 13.64    -0.000 A 
HETATM   21  C34   D T1001       1.841  10.366  14.965  1.00 13.54    -0.000 A 
HETATM   22  C35   D T1001       1.912   9.575  13.803  1.00 13.00    -0.004 A 
ENDBRANCH  16  17
ENDBRANCH   5  16
ENDBRANCH   3   5
ENDBRANCH   2   3
ENDBRANCH   1   2
BRANCH   1  23
HETATM   23  C44   D T1001       5.359   8.638   5.904  1.00  9.33     0.051 C 
BRANCH  23  24
HETATM   24  C45   D T1001       5.500   7.278   5.244  1.00  9.99    -0.020 A 
HETATM   25  C48   D T1001       5.285   6.087   5.927  1.00 10.42    -0.004 A 
HETATM   26  C49   D T1001       5.443   4.847   5.306  1.00 12.60    -0.000 A 
HETATM   27  C50   D T1001       5.842   4.814   3.959  1.00 12.24    -0.000 A 
HETATM   28  C51   D T1001       6.054   5.979   3.254  1.00 13.41    -0.000 A 
HETATM   29  C52   D T1001       5.881   7.203   3.897  1.00 11.46    -0.004 A 
ENDBRANCH  23  24
ENDBRANCH   1  23
BRANCH   1  30
HETATM   30  N58   D T1001       3.204   9.899   5.619  1.00  8.28    -0.238 NA
HETATM   31  C18   D T1001       3.787  11.067   5.197  1.00  8.88     0.274 C 
HETATM   32  O61   D T1001       4.915  11.389   5.544  1.00 11.15    -0.268 OA
BRANCH  31  33
HETATM   33  C19   D T1001       2.857  11.923   4.305  1.00  8.22     0.188 C 
BRANCH  33  34
HETATM   34  N20   D T1001       2.223  10.959   3.371  1.00  9.06    -0.211 NA
HETATM   35  C21   D T1001       2.858  10.717   2.165  1.00  7.77     0.343 C 
HETATM   36  N74   D T1001       2.187   9.839   1.312  1.00  9.58    -0.294 N 
HETATM   37  O76   D T1001       3.878  11.322   1.841  1.00  8.28    -0.245 OA
HETATM   38  C95   D T1001       0.902   9.221   1.624  1.00 12.13     0.131 C 
BRANCH  36  39
HETATM   39  C75   D T1001       2.746   9.621  -0.019  1.00 11.33     0.152 C 
BRANCH  39  40
HETATM   40  C77   D T1001       3.823   8.585  -0.044  1.00 11.34     0.083 A 
HETATM   41  C80   D T1001       3.588   7.233  -0.131  1.00 12.89     0.049 A 
HETATM   42  S81   D T1001       5.078   6.399  -0.143  1.00 18.25    -0.091 SA
HETATM   43  C82   D T1001       5.929   7.879  -0.036  1.00 17.46     0.127 A 
HETATM   44  N83   D T1001       5.162   8.923   0.026  1.00 15.61    -0.266 NA
BRANCH  43  45
HETATM   45  C85A  D T1001       7.439   7.822  -0.014  0.65 20.47     0.030 C 
HETATM   46  C86A  D T1001       8.037   8.292  -1.324  0.65 21.84     0.003 C 
HETATM   47  C90A  D T1001       8.002   8.574   1.198  0.65 25.77     0.003 C 
ENDBRANCH  43  45
BRANCH  43  48
HETATM   48  C85B  D T1001       7.435   7.886  -0.009  0.35 20.27     0.030 C 
HETATM   49  C86B  D T1001       8.046   8.253  -1.354  0.35 19.26     0.003 C 
HETATM   50  C90B  D T1001       8.059   8.594   1.173  0.35 21.00     0.003 C 
ENDBRANCH  43  48
ENDBRANCH  39  40
ENDBRANCH  36  39
ENDBRANCH  33  34
BRANCH  33  51
HETATM   51  C62   D T1001       1.818  12.601   5.233  1.00  9.40     0.032 C 
HETATM   52  C64   D T1001       1.871  14.114   5.051  1.00 11.21     0.003 C 
HETATM   53  C68   D T1001       0.413  12.071   4.876  1.00 11.67     0.003 C 
ENDBRANCH  33  51
ENDBRANCH  31  33
ENDBRANCH   1  30
TORSDOF 19
ENDMDL
MODEL 6
REMARK VINA RESULT:    -8.597      6.363     10.567
REMARK INTER + INTRA:         -22.080
REMARK INTER:                 -20.258
REMARK INTRA:                  -1.822
REMARK UNBOUND:                -4.437
REMARK  19 active torsions:
REMARK  status: ('A' for Active; 'I' for Inactive)
REMARK    1  A    between atoms: C2_2  and  C6_6 
REMARK    2  A    between atoms: C6_6  and  O7_7 
REMARK    3  A    between atoms: O7_7  and  C10_8 
REMARK       I    between atoms: C10_8  and  N11_10 
REMARK    4  A    between atoms: N11_10  and  C12_11 
REMARK    5  A    between atoms: C12_11  and  C13_12 
REMARK    6  A    between atoms: C12_11  and  C26_15 
REMARK    7  A    between atoms: C13_12  and  C14_13 
REMARK    8  A    between atoms: C14_13  and  C15_14 
REMARK    9  A    between atoms: C15_14  and  C44_23 
REMARK   10  A    between atoms: C15_14  and  N58_30 
REMARK   11  A    between atoms: C26_15  and  C28_16 
REMARK   12  A    between atoms: C44_23  and  C45_24 
REMARK       I    between atoms: N58_30  and  C18_33 
REMARK   13  A    between atoms: N20_31  and  C19_32 
REMARK       I    between atoms: N20_31  and  C21_38 
REMARK   14  A    between atoms: C19_32  and  C18_33 
REMARK   15  A    between atoms: C19_32  and  C62_35 
REMARK       I    between atoms: C21_38  and  N74_39 
REMARK   16  A    between atoms: N74_39  and  C75_40 
REMARK   17  A    between atoms: C75_40  and  C77_42 
REMARK   18  A    between atoms: C82_45  and  C85@A_47 
REMARK   19  A    between atoms: C82_45  and  C85@B_48 
ROOT
HETATM    1  C15   D T1001       0.506  11.364  -3.981  1.00  8.25     0.113 C 
ENDROOT
BRANCH   1   2
HETATM    2  C14   D T1001       1.539  10.883  -5.024  1.00  7.75     0.060 C 
BRANCH   2   3
HETATM    3  C13   D T1001       0.964   9.940  -6.084  1.00  7.71     0.177 C 
HETATM    4  O41   D T1001       1.878   8.878  -6.377  1.00  8.53    -0.221 OA
BRANCH   3   5
HETATM    5  C12   D T1001       0.538  10.648  -7.390  1.00  8.17     0.143 C 
BRANCH   5   6
HETATM    6  N11   D T1001      -0.950  10.822  -7.412  1.00  8.56    -0.211 NA
HETATM    7  C10   D T1001      -1.553  11.004  -8.626  1.00  9.54     0.384 C 
HETATM    8  O24   D T1001      -1.078  10.885  -9.741  1.00 10.40    -0.236 OA
BRANCH   7   9
HETATM    9  O7    D T1001      -2.847  11.376  -8.432  1.00 13.31    -0.278 OA
BRANCH   9  10
HETATM   10  C6    D T1001      -3.025  12.805  -8.616  1.00 21.32     0.188 C 
BRANCH  10  11
HETATM   11  C2    D T1001      -4.441  13.204  -8.578  1.00 19.63     0.058 A 
HETATM   12  C1    D T1001      -5.037  14.311  -9.170  1.00 18.64     0.104 A 
HETATM   13  N5    D T1001      -6.408  14.438  -8.964  1.00 24.03    -0.235 NA
HETATM   14  C4    D T1001      -6.862  13.442  -8.219  1.00 26.08     0.134 A 
HETATM   15  S3    D T1001      -5.644  12.329  -7.757  1.00 24.78    -0.066 SA
ENDBRANCH  10  11
ENDBRANCH   9  10
ENDBRANCH   7   9
ENDBRANCH   5   6
BRANCH   5  16
HETATM   16  C26   D T1001       1.224  12.039  -7.554  1.00  9.89     0.053 C 
BRANCH  16  17
HETATM   17  C28   D T1001       2.149  12.111  -8.744  1.00 10.53    -0.020 A 
HETATM   18  C31   D T1001       2.685  13.357  -9.119  1.00 10.31    -0.004 A 
HETATM   19  C32   D T1001       3.564  13.429 -10.227  1.00 11.41    -0.000 A 
HETATM   20  C33   D T1001       3.896  12.271 -10.939  1.00 13.64    -0.000 A 
HETATM   21  C34   D T1001       3.369  11.042 -10.555  1.00 13.54    -0.000 A 
HETATM   22  C35   D T1001       2.484  10.956  -9.463  1.00 13.00    -0.004 A 
ENDBRANCH  16  17
ENDBRANCH   5  16
ENDBRANCH   3   5
ENDBRANCH   2   3
ENDBRANCH   1   2
BRANCH   1  23
HETATM   23  C44   D T1001       0.975  12.607  -3.194  1.00  9.33     0.051 C 
BRANCH  23  24
HETATM   24  C45   D T1001       0.574  13.972  -3.722  1.00  9.99    -0.020 A 
HETATM   25  C48   D T1001      -0.576  14.630  -3.304  1.00 10.42    -0.004 A 
HETATM   26  C49   D T1001      -0.938  15.875  -3.821  1.00 12.60    -0.000 A 
HETATM   27  C50   D T1001      -0.117  16.463  -4.798  1.00 12.24    -0.000 A 
HETATM   28  C51   D T1001       1.033  15.838  -5.227  1.00 13.41    -0.000 A 
HETATM   29  C52   D T1001       1.375  14.599  -4.687  1.00 11.46    -0.004 A 
ENDBRANCH  23  24
ENDBRANCH   1  23
BRANCH   1  30
HETATM   30  N58   D T1001       0.236  10.207  -3.111  1.00  8.28    -0.238 NA
HETATM   31  C18   D T1001      -1.061   9.972  -2.730  1.00  8.88     0.274 C 
HETATM   32  O61   D T1001      -1.980  10.701  -3.078  1.00 11.15    -0.268 OA
BRANCH  31  33
HETATM   33  C19   D T1001      -1.208   8.748  -1.795  1.00  8.22     0.188 C 
BRANCH  33  34
HETATM   34  N20   D T1001      -0.066   8.843  -0.853  1.00  9.06    -0.211 NA
HETATM   35  C21   D T1001       0.847   7.802  -0.840  1.00  7.77     0.343 C 
HETATM   36  N74   D T1001       1.871   7.927   0.101  1.00  9.58    -0.294 N 
HETATM   37  O76   D T1001       0.691   6.799  -1.535  1.00  8.28    -0.245 OA
HETATM   38  C95   D T1001       1.990   9.044   1.032  1.00 12.13     0.131 C 
BRANCH  36  39
HETATM   39  C75   D T1001       2.807   6.815   0.241  1.00 11.33     0.152 C 
BRANCH  39  40
HETATM   40  C77   D T1001       4.141   7.232   0.772  1.00 11.34     0.083 A 
HETATM   41  C80   D T1001       4.532   7.075   2.081  1.00 12.89     0.049 A 
HETATM   42  S81   D T1001       6.123   7.664   2.272  1.00 18.25    -0.091 SA
HETATM   43  C82   D T1001       6.186   8.083   0.614  1.00 17.46     0.127 A 
HETATM   44  N83   D T1001       5.094   7.823  -0.036  1.00 15.61    -0.266 NA
BRANCH  43  45
HETATM   45  C85A  D T1001       7.463   8.702   0.094  0.65 20.47     0.030 C 
HETATM   46  C86A  D T1001       8.571   8.652   1.124  0.65 21.84     0.003 C 
HETATM   47  C90A  D T1001       7.872   8.077  -1.246  0.65 25.77     0.003 C 
ENDBRANCH  43  45
BRANCH  43  48
HETATM   48  C85B  D T1001       7.431   8.704   0.037  0.35 20.27     0.030 C 
HETATM   49  C86B  D T1001       8.598   8.702   1.015  0.35 19.26     0.003 C 
HETATM   50  C90B  D T1001       7.791   8.257  -1.362  0.35 21.00     0.003 C 
ENDBRANCH  43  48
ENDBRANCH  39  40
ENDBRANCH  36  39
ENDBRANCH  33  34
BRANCH  33  51
HETATM   51  C62   D T1001      -2.571   8.879  -1.069  1.00  9.40     0.032 C 
HETATM   52  C64   D T1001      -3.438   7.662  -1.372  1.00 11.21     0.003 C 
HETATM   53  C68   D T1001      -2.317   8.986   0.449  1.00 11.67     0.003 C 
ENDBRANCH  33  51
ENDBRANCH  31  33
ENDBRANCH   1  30
TORSDOF 19
ENDMDL
MODEL 7
REMARK VINA RESULT:    -8.593      2.868      5.782
REMARK INTER + INTRA:         -22.072
REMARK INTER:                 -19.233
REMARK INTRA:                  -2.839
REMARK UNBOUND:                -4.437
REMARK  19 active torsions:
REMARK  status: ('A' for Active; 'I' for Inactive)
REMARK    1  A    between atoms: C2_2  and  C6_6 
REMARK    2  A    between atoms: C6_6  and  O7_7 
REMARK    3  A    between atoms: O7_7  and  C10_8 
REMARK       I    between atoms: C10_8  and  N11_10 
REMARK    4  A    between atoms: N11_10  and  C12_11 
REMARK    5  A    between atoms: C12_11  and  C13_12 
REMARK    6  A    between atoms: C12_11  and  C26_15 
REMARK    7  A    between atoms: C13_12  and  C14_13 
REMARK    8  A    between atoms: C14_13  and  C15_14 
REMARK    9  A    between atoms: C15_14  and  C44_23 
REMARK   10  A    between atoms: C15_14  and  N58_30 
REMARK   11  A    between atoms: C26_15  and  C28_16 
REMARK   12  A    between atoms: C44_23  and  C45_24 
REMARK       I    between atoms: N58_30  and  C18_33 
REMARK   13  A    between atoms: N20_31  and  C19_32 
REMARK       I    between atoms: N20_31  and  C21_38 
REMARK   14  A    between atoms: C19_32  and  C18_33 
REMARK   15  A    between atoms: C19_32  and  C62_35 
REMARK       I    between atoms: C21_38  and  N74_39 
REMARK   16  A    between atoms: N74_39  and  C75_40 
REMARK   17  A    between atoms: C75_40  and  C77_42 
REMARK   18  A    between atoms: C82_45  and  C85@A_47 
REMARK   19  A    between atoms: C82_45  and  C85@B_48 
ROOT
HETATM    1  C15   D T1001       3.096   7.710   0.183  1.00  8.25     0.113 C 
ENDROOT
BRANCH   1   2
HETATM    2  C14   D T1001       1.800   6.921  -0.109  1.00  7.75     0.060 C 
BRANCH   2   3
HETATM    3  C13   D T1001       1.142   7.271  -1.445  1.00  7.71     0.177 C 
HETATM    4  O41   D T1001       2.081   7.177  -2.521  1.00  8.53    -0.221 OA
BRANCH   3   5
HETATM    5  C12   D T1001       0.452   8.654  -1.462  1.00  8.17     0.143 C 
BRANCH   5   6
HETATM    6  N11   D T1001       0.657   9.308  -2.795  1.00  8.56    -0.211 NA
HETATM    7  C10   D T1001       1.123  10.595  -2.809  1.00  9.54     0.384 C 
HETATM    8  O24   D T1001       1.560  11.259  -1.887  1.00 10.40    -0.236 OA
BRANCH   7   9
HETATM    9  O7    D T1001       1.020  11.093  -4.070  1.00 13.31    -0.278 OA
BRANCH   9  10
HETATM   10  C6    D T1001       1.218  10.061  -5.070  1.00 21.32     0.188 C 
BRANCH  10  11
HETATM   11  C2    D T1001       1.313  10.609  -6.432  1.00 19.63     0.058 A 
HETATM   12  C1    D T1001       0.756  11.783  -6.926  1.00 18.64     0.104 A 
HETATM   13  N5    D T1001       1.011  12.053  -8.267  1.00 24.03    -0.235 NA
HETATM   14  C4    D T1001       1.752  11.095  -8.803  1.00 26.08     0.134 A 
HETATM   15  S3    D T1001       2.162   9.853  -7.696  1.00 24.78    -0.066 SA
ENDBRANCH  10  11
ENDBRANCH   9  10
ENDBRANCH   7   9
ENDBRANCH   5   6
BRANCH   5  16
HETATM   16  C26   D T1001      -1.075   8.552  -1.166  1.00  9.89     0.053 C 
BRANCH  16  17
HETATM   17  C28   D T1001      -1.448   9.022   0.218  1.00 10.53    -0.020 A 
HETATM   18  C31   D T1001      -2.799   8.994   0.610  1.00 10.31    -0.004 A 
HETATM   19  C32   D T1001      -3.153   9.422   1.912  1.00 11.41    -0.000 A 
HETATM   20  C33   D T1001      -2.167   9.868   2.800  1.00 13.64    -0.000 A 
HETATM   21  C34   D T1001      -0.832   9.884   2.407  1.00 13.54    -0.000 A 
HETATM   22  C35   D T1001      -0.466   9.472   1.111  1.00 13.00    -0.004 A 
ENDBRANCH  16  17
ENDBRANCH   5  16
ENDBRANCH   3   5
ENDBRANCH   2   3
ENDBRANCH   1   2
BRANCH   1  23
HETATM   23  C44   D T1001       4.356   6.817   0.202  1.00  9.33     0.051 C 
BRANCH  23  24
HETATM   24  C45   D T1001       5.704   7.499   0.347  1.00  9.99    -0.020 A 
HETATM   25  C48   D T1001       6.418   7.989  -0.739  1.00 10.42    -0.004 A 
HETATM   26  C49   D T1001       7.667   8.592  -0.584  1.00 12.60    -0.000 A 
HETATM   27  C50   D T1001       8.213   8.689   0.707  1.00 12.24    -0.000 A 
HETATM   28  C51   D T1001       7.525   8.219   1.804  1.00 13.41    -0.000 A 
HETATM   29  C52   D T1001       6.275   7.629   1.621  1.00 11.46    -0.004 A 
ENDBRANCH  23  24
ENDBRANCH   1  23
BRANCH   1  30
HETATM   30  N58   D T1001       2.870   8.406   1.460  1.00  8.28    -0.238 NA
HETATM   31  C18   D T1001       3.144   9.750   1.523  1.00  8.88     0.274 C 
HETATM   32  O61   D T1001       3.579  10.366   0.560  1.00 11.15    -0.268 OA
BRANCH  31  33
HETATM   33  C19   D T1001       2.895  10.356   2.924  1.00  8.22     0.188 C 
BRANCH  33  34
HETATM   34  N20   D T1001       2.982   9.210   3.862  1.00  9.06    -0.211 NA
HETATM   35  C21   D T1001       2.182   9.241   4.992  1.00  7.77     0.343 C 
HETATM   36  N74   D T1001       2.345   8.157   5.858  1.00  9.58    -0.294 N 
HETATM   37  O76   D T1001       1.470  10.208   5.252  1.00  8.28    -0.245 OA
HETATM   38  C95   D T1001       3.291   7.069   5.634  1.00 12.13     0.131 C 
BRANCH  36  39
HETATM   39  C75   D T1001       1.612   8.179   7.121  1.00 11.33     0.152 C 
BRANCH  39  40
HETATM   40  C77   D T1001       2.389   8.790   8.243  1.00 11.34     0.083 A 
HETATM   41  C80   D T1001       2.147   8.538   9.572  1.00 12.89     0.049 A 
HETATM   42  S81   D T1001       3.257   9.417  10.527  1.00 18.25    -0.091 SA
HETATM   43  C82   D T1001       3.982  10.065   9.119  1.00 17.46     0.127 A 
HETATM   44  N83   D T1001       3.426   9.674   8.014  1.00 15.61    -0.266 NA
BRANCH  43  45
HETATM   45  C85A  D T1001       5.151  11.005   9.299  0.65 20.47     0.030 C 
HETATM   46  C86A  D T1001       6.216  10.411  10.197  0.65 21.84     0.003 C 
HETATM   47  C90A  D T1001       5.707  11.460   7.944  0.65 25.77     0.003 C 
ENDBRANCH  43  45
BRANCH  43  48
HETATM   48  C85B  D T1001       5.150  11.009   9.235  0.35 20.27     0.030 C 
HETATM   49  C86B  D T1001       6.249  10.477  10.145  0.35 19.26     0.003 C 
HETATM   50  C90B  D T1001       5.648  11.588   7.929  0.35 21.00     0.003 C 
ENDBRANCH  43  48
ENDBRANCH  39  40
ENDBRANCH  36  39
ENDBRANCH  33  34
BRANCH  33  51
HETATM   51  C62   D T1001       4.009  11.403   3.182  1.00  9.40     0.032 C 
HETATM   52  C64   D T1001       3.447  12.571   3.983  1.00 11.21     0.003 C 
HETATM   53  C68   D T1001       5.156  10.725   3.961  1.00 11.67     0.003 C 
ENDBRANCH  33  51
ENDBRANCH  31  33
ENDBRANCH   1  30
TORSDOF 19
ENDMDL
MODEL 8
REMARK VINA RESULT:    -8.517      2.634      4.250
REMARK INTER + INTRA:         -21.916
REMARK INTER:                 -18.433
REMARK INTRA:                  -3.482
REMARK UNBOUND:                -4.437
REMARK  19 active torsions:
REMARK  status: ('A' for Active; 'I' for Inactive)
REMARK    1  A    between atoms: C2_2  and  C6_6 
REMARK    2  A    between atoms: C6_6  and  O7_7 
REMARK    3  A    between atoms: O7_7  and  C10_8 
REMARK       I    between atoms: C10_8  and  N11_10 
REMARK    4  A    between atoms: N11_10  and  C12_11 
REMARK    5  A    between atoms: C12_11  and  C13_12 
REMARK    6  A    between atoms: C12_11  and  C26_15 
REMARK    7  A    between atoms: C13_12  and  C14_13 
REMARK    8  A    between atoms: C14_13  and  C15_14 
REMARK    9  A    between atoms: C15_14  and  C44_23 
REMARK   10  A    between atoms: C15_14  and  N58_30 
REMARK   11  A    between atoms: C26_15  and  C28_16 
REMARK   12  A    between atoms: C44_23  and  C45_24 
REMARK       I    between atoms: N58_30  and  C18_33 
REMARK   13  A    between atoms: N20_31  and  C19_32 
REMARK       I    between atoms: N20_31  and  C21_38 
REMARK   14  A    between atoms: C19_32  and  C18_33 
REMARK   15  A    between atoms: C19_32  and  C62_35 
REMARK       I    between atoms: C21_38  and  N74_39 
REMARK   16  A    between atoms: N74_39  and  C75_40 
REMARK   17  A    between atoms: C75_40  and  C77_42 
REMARK   18  A    between atoms: C82_45  and  C85@A_47 
REMARK   19  A    between atoms: C82_45  and  C85@B_48 
ROOT
HETATM    1  C15   D T1001       3.914   9.180   4.938  1.00  8.25     0.113 C 
ENDROOT
BRANCH   1   2
HETATM    2  C14   D T1001       2.403   9.091   4.629  1.00  7.75     0.060 C 
BRANCH   2   3
HETATM    3  C13   D T1001       1.961   9.922   3.423  1.00  7.71     0.177 C 
HETATM    4  O41   D T1001       0.558  10.196   3.474  1.00  8.53    -0.221 OA
BRANCH   3   5
HETATM    5  C12   D T1001       2.330   9.295   2.059  1.00  8.17     0.143 C 
BRANCH   5   6
HETATM    6  N11   D T1001       1.118   9.244   1.179  1.00  8.56    -0.211 NA
HETATM    7  C10   D T1001       0.821   8.054   0.573  1.00  9.54     0.384 C 
HETATM    8  O24   D T1001       1.308   6.955   0.765  1.00 10.40    -0.236 OA
BRANCH   7   9
HETATM    9  O7    D T1001      -0.152   8.257  -0.356  1.00 13.31    -0.278 OA
BRANCH   9  10
HETATM   10  C6    D T1001      -0.521   9.657  -0.446  1.00 21.32     0.188 C 
BRANCH  10  11
HETATM   11  C2    D T1001      -1.976   9.860  -0.372  1.00 19.63     0.058 A 
HETATM   12  C1    D T1001      -2.748  10.794  -1.053  1.00 18.64     0.104 A 
HETATM   13  N5    D T1001      -4.114  10.757  -0.784  1.00 24.03    -0.235 NA
HETATM   14  C4    D T1001      -4.390   9.808   0.097  1.00 26.08     0.134 A 
HETATM   15  S3    D T1001      -3.008   8.937   0.614  1.00 24.78    -0.066 SA
ENDBRANCH  10  11
ENDBRANCH   9  10
ENDBRANCH   7   9
ENDBRANCH   5   6
BRANCH   5  16
HETATM   16  C26   D T1001       3.461  10.087   1.336  1.00  9.89     0.053 C 
BRANCH  16  17
HETATM   17  C28   D T1001       4.599   9.212   0.869  1.00 10.53    -0.020 A 
HETATM   18  C31   D T1001       4.351   8.233  -0.110  1.00 10.31    -0.004 A 
HETATM   19  C32   D T1001       5.416   7.417  -0.561  1.00 11.41    -0.000 A 
HETATM   20  C33   D T1001       6.703   7.585  -0.037  1.00 13.64    -0.000 A 
HETATM   21  C34   D T1001       6.941   8.562   0.924  1.00 13.54    -0.000 A 
HETATM   22  C35   D T1001       5.889   9.374   1.392  1.00 13.00    -0.004 A 
ENDBRANCH  16  17
ENDBRANCH   5  16
ENDBRANCH   3   5
ENDBRANCH   2   3
ENDBRANCH   1   2
BRANCH   1  23
HETATM   23  C44   D T1001       4.421   8.019   5.821  1.00  9.33     0.051 C 
BRANCH  23  24
HETATM   24  C45   D T1001       5.040   6.819   5.126  1.00  9.99    -0.020 A 
HETATM   25  C48   D T1001       5.471   6.856   3.805  1.00 10.42    -0.004 A 
HETATM   26  C49   D T1001       6.015   5.734   3.180  1.00 12.60    -0.000 A 
HETATM   27  C50   D T1001       6.113   4.537   3.910  1.00 12.24    -0.000 A 
HETATM   28  C51   D T1001       5.702   4.472   5.222  1.00 13.41    -0.000 A 
HETATM   29  C52   D T1001       5.169   5.611   5.825  1.00 11.46    -0.004 A 
ENDBRANCH  23  24
ENDBRANCH   1  23
BRANCH   1  30
HETATM   30  N58   D T1001       4.127  10.500   5.555  1.00  8.28    -0.238 NA
HETATM   31  C18   D T1001       5.309  11.150   5.302  1.00  8.88     0.274 C 
HETATM   32  O61   D T1001       6.181  10.657   4.600  1.00 11.15    -0.268 OA
BRANCH  31  33
HETATM   33  C19   D T1001       5.423  12.510   6.030  1.00  8.22     0.188 C 
BRANCH  33  34
HETATM   34  N20   D T1001       4.441  12.437   7.141  1.00  9.06    -0.211 NA
HETATM   35  C21   D T1001       3.745  13.590   7.463  1.00  7.77     0.343 C 
HETATM   36  N74   D T1001       2.874  13.468   8.547  1.00  9.58    -0.294 N 
HETATM   37  O76   D T1001       3.971  14.658   6.899  1.00  8.28    -0.245 OA
HETATM   38  C95   D T1001       2.699  12.242   9.319  1.00 12.13     0.131 C 
BRANCH  36  39
HETATM   39  C75   D T1001       2.188  14.672   9.008  1.00 11.33     0.152 C 
BRANCH  39  40
HETATM   40  C77   D T1001       0.741  14.706   8.632  1.00 11.34     0.083 A 
HETATM   41  C80   D T1001      -0.270  15.055   9.495  1.00 12.89     0.049 A 
HETATM   42  S81   D T1001      -1.766  14.981   8.676  1.00 18.25    -0.091 SA
HETATM   43  C82   D T1001      -0.974  14.497   7.237  1.00 17.46     0.127 A 
HETATM   44  N83   D T1001       0.311  14.378   7.360  1.00 15.61    -0.266 NA
BRANCH  43  45
HETATM   45  C85A  D T1001      -1.827  14.256   6.013  0.65 20.47     0.030 C 
HETATM   46  C86A  D T1001      -2.095  15.540   5.255  0.65 21.84     0.003 C 
HETATM   47  C90A  D T1001      -1.221  13.161   5.127  0.65 25.77     0.003 C 
ENDBRANCH  43  45
BRANCH  43  48
HETATM   48  C85B  D T1001      -1.770  14.241   5.985  0.35 20.27     0.030 C 
HETATM   49  C86B  D T1001      -2.172  15.524   5.269  0.35 19.26     0.003 C 
HETATM   50  C90B  D T1001      -1.219  13.167   5.074  0.35 21.00     0.003 C 
ENDBRANCH  43  48
ENDBRANCH  39  40
ENDBRANCH  36  39
ENDBRANCH  33  34
BRANCH  33  51
HETATM   51  C62   D T1001       6.877  12.640   6.549  1.00  9.40     0.032 C 
HETATM   52  C64   D T1001       7.501  13.928   6.025  1.00 11.21     0.003 C 
HETATM   53  C68   D T1001       6.855  12.648   8.092  1.00 11.67     0.003 C 
ENDBRANCH  33  51
ENDBRANCH  31  33
ENDBRANCH   1  30
TORSDOF 19
ENDMDL
MODEL 9
REMARK VINA RESULT:    -8.454      3.451      6.209
REMARK INTER + INTRA:         -21.787
REMARK INTER:                 -16.526
REMARK INTRA:                  -5.261
REMARK UNBOUND:                -4.437
REMARK  19 active torsions:
REMARK  status: ('A' for Active; 'I' for Inactive)
REMARK    1  A    between atoms: C2_2  and  C6_6 
REMARK    2  A    between atoms: C6_6  and  O7_7 
REMARK    3  A    between atoms: O7_7  and  C10_8 
REMARK       I    between atoms: C10_8  and  N11_10 
REMARK    4  A    between atoms: N11_10  and  C12_11 
REMARK    5  A    between atoms: C12_11  and  C13_12 
REMARK    6  A    between atoms: C12_11  and  C26_15 
REMARK    7  A    between atoms: C13_12  and  C14_13 
REMARK    8  A    between atoms: C14_13  and  C15_14 
REMARK    9  A    between atoms: C15_14  and  C44_23 
REMARK   10  A    between atoms: C15_14  and  N58_30 
REMARK   11  A    between atoms: C26_15  and  C28_16 
REMARK   12  A    between atoms: C44_23  and  C45_24 
REMARK       I    between atoms: N58_30  and  C18_33 
REMARK   13  A    between atoms: N20_31  and  C19_32 
REMARK       I    between atoms: N20_31  and  C21_38 
REMARK   14  A    between atoms: C19_32  and  C18_33 
REMARK   15  A    between atoms: C19_32  and  C62_35 
REMARK       I    between atoms: C21_38  and  N74_39 
REMARK   16  A    between atoms: N74_39  and  C75_40 
REMARK   17  A    between atoms: C75_40  and  C77_42 
REMARK   18  A    between atoms: C82_45  and  C85@A_47 
REMARK   19  A    between atoms: C82_45  and  C85@B_48 
ROOT
HETATM    1  C15   D T1001       1.703  10.918   4.585  1.00  8.25     0.113 C 
ENDROOT
BRANCH   1   2
HETATM    2  C14   D T1001       2.039   9.896   5.694  1.00  7.75     0.060 C 
BRANCH   2   3
HETATM    3  C13   D T1001       3.173  10.333   6.623  1.00  7.71     0.177 C 
HETATM    4  O41   D T1001       2.955  11.660   7.111  1.00  8.53    -0.221 OA
BRANCH   3   5
HETATM    5  C12   D T1001       4.580  10.226   5.991  1.00  8.17     0.143 C 
BRANCH   5   6
HETATM    6  N11   D T1001       5.550  11.068   6.763  1.00  8.56    -0.211 NA
HETATM    7  C10   D T1001       6.000  12.220   6.178  1.00  9.54     0.384 C 
HETATM    8  O24   D T1001       5.605  12.768   5.166  1.00 10.40    -0.236 OA
BRANCH   7   9
HETATM    9  O7    D T1001       7.033  12.718   6.910  1.00 13.31    -0.278 OA
BRANCH   9  10
HETATM   10  C6    D T1001       6.607  13.814   7.760  1.00 21.32     0.188 C 
BRANCH  10  11
HETATM   11  C2    D T1001       6.611  13.453   9.186  1.00 19.63     0.058 A 
HETATM   12  C1    D T1001       7.362  12.471   9.821  1.00 18.64     0.104 A 
HETATM   13  N5    D T1001       7.159  12.350  11.193  1.00 24.03    -0.235 NA
HETATM   14  C4    D T1001       6.259  13.226  11.610  1.00 26.08     0.134 A 
HETATM   15  S3    D T1001       5.643  14.218  10.355  1.00 24.78    -0.066 SA
ENDBRANCH  10  11
ENDBRANCH   9  10
ENDBRANCH   7   9
ENDBRANCH   5   6
BRANCH   5  16
HETATM   16  C26   D T1001       5.093   8.754   5.948  1.00  9.89     0.053 C 
BRANCH  16  17
HETATM   17  C28   D T1001       5.533   8.315   4.573  1.00 10.53    -0.020 A 
HETATM   18  C31   D T1001       6.459   9.105   3.866  1.00 10.31    -0.004 A 
HETATM   19  C32   D T1001       6.885   8.692   2.581  1.00 11.41    -0.000 A 
HETATM   20  C33   D T1001       6.391   7.509   2.021  1.00 13.64    -0.000 A 
HETATM   21  C34   D T1001       5.482   6.729   2.731  1.00 13.54    -0.000 A 
HETATM   22  C35   D T1001       5.040   7.133   4.005  1.00 13.00    -0.004 A 
ENDBRANCH  16  17
ENDBRANCH   5  16
ENDBRANCH   3   5
ENDBRANCH   2   3
ENDBRANCH   1   2
BRANCH   1  23
HETATM   23  C44   D T1001       2.900  11.222   3.659  1.00  9.33     0.051 C 
BRANCH  23  24
HETATM   24  C45   D T1001       3.094  10.341   2.439  1.00  9.99    -0.020 A 
HETATM   25  C48   D T1001       3.971  10.665   1.411  1.00 10.42    -0.004 A 
HETATM   26  C49   D T1001       4.115   9.852   0.286  1.00 12.60    -0.000 A 
HETATM   27  C50   D T1001       3.339   8.683   0.195  1.00 12.24    -0.000 A 
HETATM   28  C51   D T1001       2.467   8.333   1.202  1.00 13.41    -0.000 A 
HETATM   29  C52   D T1001       2.349   9.160   2.318  1.00 11.46    -0.004 A 
ENDBRANCH  23  24
ENDBRANCH   1  23
BRANCH   1  30
HETATM   30  N58   D T1001       1.196  12.116   5.275  1.00  8.28    -0.238 NA
HETATM   31  C18   D T1001      -0.125  12.449   5.108  1.00  8.88     0.274 C 
HETATM   32  O61   D T1001      -0.872  11.793   4.396  1.00 11.15    -0.268 OA
BRANCH  31  33
HETATM   33  C19   D T1001      -0.525  13.742   5.858  1.00  8.22     0.188 C 
BRANCH  33  34
HETATM   34  N20   D T1001       0.670  14.111   6.656  1.00  9.06    -0.211 NA
HETATM   35  C21   D T1001       0.559  14.077   8.036  1.00  7.77     0.343 C 
HETATM   36  N74   D T1001       1.702  14.481   8.729  1.00  9.58    -0.294 N 
HETATM   37  O76   D T1001      -0.506  13.814   8.591  1.00  8.28    -0.245 OA
HETATM   38  C95   D T1001       2.930  14.932   8.083  1.00 12.13     0.131 C 
BRANCH  36  39
HETATM   39  C75   D T1001       1.620  14.571  10.184  1.00 11.33     0.152 C 
BRANCH  39  40
HETATM   40  C77   D T1001       2.064  13.323  10.878  1.00 11.34     0.083 A 
HETATM   41  C80   D T1001       2.096  13.172  12.244  1.00 12.89     0.049 A 
HETATM   42  S81   D T1001       2.648  11.603  12.627  1.00 18.25    -0.091 SA
HETATM   43  C82   D T1001       2.804  11.231  10.964  1.00 17.46     0.127 A 
HETATM   44  N83   D T1001       2.488  12.211  10.175  1.00 15.61    -0.266 NA
BRANCH  43  45
HETATM   45  C85A  D T1001       3.288   9.848  10.595  0.65 20.47     0.030 C 
HETATM   46  C86A  D T1001       2.295   9.123   9.711  0.65 21.84     0.003 C 
HETATM   47  C90A  D T1001       4.695   9.901   9.986  0.65 25.77     0.003 C 
ENDBRANCH  43  45
BRANCH  43  48
HETATM   48  C85B  D T1001       3.283   9.869  10.535  0.35 20.27     0.030 C 
HETATM   49  C86B  D T1001       4.739   9.870  10.088  0.35 19.26     0.003 C 
HETATM   50  C90B  D T1001       2.916   8.731  11.460  0.35 21.00     0.003 C 
ENDBRANCH  43  48
ENDBRANCH  39  40
ENDBRANCH  36  39
ENDBRANCH  33  34
BRANCH  33  51
HETATM   51  C62   D T1001      -0.864  14.813   4.791  1.00  9.40     0.032 C 
HETATM   52  C64   D T1001      -1.750  15.891   5.402  1.00 11.21     0.003 C 
HETATM   53  C68   D T1001       0.453  15.434   4.276  1.00 11.67     0.003 C 
ENDBRANCH  33  51
ENDBRANCH  31  33
ENDBRANCH   1  30
TORSDOF 19
ENDMDL
