MODEL 1
REMARK VINA RESULT:   -11.166      0.000      0.000
REMARK INTER + INTRA:         -12.783
REMARK INTER:                 -13.125
REMARK INTRA:                   0.341
REMARK UNBOUND:                 0.341
REMARK  3 active torsions:
REMARK  status: ('A' for Active; 'I' for Inactive)
REMARK    1  A    between atoms: CAV_22  and  CAW_23 
REMARK    2  A    between atoms: CAX_24  and  NBD_30 
REMARK    3  A    between atoms: CAY_25  and  CAZ_26 
ROOT
HETATM    1  CAK   D T   3      -2.114  -4.346  11.840  1.00 20.96     0.102 A 
HETATM    2  CAL   D T   3      -5.128  -2.087   9.547  1.00 13.59     0.124 A 
HETATM    3  CAM   D T   3      -4.135  -5.154  10.832  1.00 18.11     0.104 A 
HETATM    4  NAS   D T   3      -2.369  -3.063  11.437  1.00 13.25    -0.225 NA
HETATM    5  NAT   D T   3      -5.329  -3.414   9.736  1.00 15.72    -0.162 NA
HETATM    6  CAW   D T   3      -3.004  -5.397  11.593  1.00 22.75     0.038 A 
HETATM    7  CAZ   D T   3      -4.001  -1.683  10.107  1.00 12.88     0.057 A 
HETATM    8  CBC   D T   3      -3.475  -2.822  10.691  1.00 11.55     0.165 A 
HETATM    9  NBE   D T   3      -4.384  -3.878  10.392  1.00 16.74    -0.211 N 
ENDROOT
BRANCH   6  10
HETATM   10  CAV   D T   3      -2.744  -6.727  11.979  1.00 21.40     0.003 A 
HETATM   11  CAE   D T   3      -3.804  -7.573  12.260  1.00 24.66     0.002 A 
HETATM   12  CAG   D T   3      -3.602  -8.891  12.664  1.00 27.57     0.017 A 
HETATM   13  CAX   D T   3      -2.317  -9.362  12.862  1.00 20.12     0.056 A 
HETATM   14  CAH   D T   3      -1.252  -8.517  12.632  1.00 21.49     0.017 A 
HETATM   15  CAF   D T   3      -1.437  -7.197  12.182  1.00 24.93     0.002 A 
BRANCH  13  16
HETATM   16  NBD   D T   3      -2.177 -10.702  13.349  1.00 29.07    -0.344 N 
HETATM   17  CAP   D T   3      -3.110 -11.229  14.351  1.00 43.49     0.140 C 
HETATM   18  CAN   D T   3      -3.528 -12.606  13.855  1.00 58.34     0.314 C 
HETATM   19  NAU   D T   3      -2.400 -13.559  13.953  1.00 37.54     0.343 N 
HETATM   20  CAO   D T   3      -1.138 -13.017  13.392  1.00 35.80     0.314 C 
HETATM   21  CAQ   D T   3      -1.326 -11.669  12.643  1.00 24.02     0.140 C 
ENDBRANCH  13  16
ENDBRANCH   6  10
BRANCH   7  22
HETATM   22  CAY   D T   3      -3.462  -0.329  10.120  1.00 18.73     0.007 A 
HETATM   23  CAD   D T   3      -2.385  -0.060  10.945  1.00 18.59     0.021 A 
HETATM   24  CAC   D T   3      -1.800   1.221  11.004  1.00 18.90     0.099 A 
HETATM   25  NAR   D T   3      -2.327   2.240  10.319  1.00 18.61    -0.244 NA
HETATM   26  CBA   D T   3      -3.388   2.055   9.521  1.00 14.95     0.081 A 
HETATM   27  CAI   D T   3      -3.921   3.130   8.814  1.00 16.02     0.019 A 
HETATM   28  CBB   D T   3      -4.004   0.786   9.416  1.00 17.98     0.018 A 
HETATM   29  CAA   D T   3      -5.041   2.994   8.014  1.00 23.51     0.002 A 
HETATM   30  CAB   D T   3      -5.653   1.751   7.892  1.00 19.31     0.000 A 
HETATM   31  CAJ   D T   3      -5.111   0.670   8.584  1.00 21.46     0.002 A 
ENDBRANCH   7  22
TORSDOF 3
ENDMDL
MODEL 2
REMARK VINA RESULT:   -11.137      5.100     11.508
REMARK INTER + INTRA:         -12.749
REMARK INTER:                 -12.340
REMARK INTRA:                  -0.409
REMARK UNBOUND:                 0.341
REMARK  3 active torsions:
REMARK  status: ('A' for Active; 'I' for Inactive)
REMARK    1  A    between atoms: CAV_22  and  CAW_23 
REMARK    2  A    between atoms: CAX_24  and  NBD_30 
REMARK    3  A    between atoms: CAY_25  and  CAZ_26 
ROOT
HETATM    1  CAK   D T   3       1.016  -0.161   9.794  1.00 20.96     0.102 A 
HETATM    2  CAL   D T   3      -3.146   0.340  11.165  1.00 13.59     0.124 A 
HETATM    3  CAM   D T   3      -0.159   1.873  10.286  1.00 18.11     0.104 A 
HETATM    4  NAS   D T   3      -0.088  -0.921  10.073  1.00 13.25    -0.225 NA
HETATM    5  NAT   D T   3      -2.395   1.452  10.980  1.00 15.72    -0.162 NA
HETATM    6  CAW   D T   3       0.989   1.238   9.846  1.00 22.75     0.038 A 
HETATM    7  CAZ   D T   3      -2.461  -0.758  10.895  1.00 12.88     0.057 A 
HETATM    8  CBC   D T   3      -1.214  -0.303  10.505  1.00 11.55     0.165 A 
HETATM    9  NBE   D T   3      -1.262   1.118  10.602  1.00 16.74    -0.211 N 
ENDROOT
BRANCH   6  10
HETATM   10  CAV   D T   3       2.123   2.034   9.586  1.00 21.40     0.003 A 
HETATM   11  CAE   D T   3       2.239   3.271  10.196  1.00 24.66     0.002 A 
HETATM   12  CAG   D T   3       3.329   4.105   9.960  1.00 27.57     0.017 A 
HETATM   13  CAX   D T   3       4.295   3.734   9.042  1.00 20.12     0.056 A 
HETATM   14  CAH   D T   3       4.169   2.525   8.391  1.00 21.49     0.017 A 
HETATM   15  CAF   D T   3       3.097   1.652   8.650  1.00 24.93     0.002 A 
BRANCH  13  16
HETATM   16  NBD   D T   3       5.352   4.667   8.789  1.00 29.07    -0.344 N 
HETATM   17  CAP   D T   3       5.482   5.303   7.474  1.00 43.49     0.140 C 
HETATM   18  CAN   D T   3       5.700   6.785   7.741  1.00 58.34     0.314 C 
HETATM   19  NAU   D T   3       7.038   7.017   8.328  1.00 37.54     0.343 N 
HETATM   20  CAO   D T   3       7.341   6.098   9.453  1.00 35.80     0.314 C 
HETATM   21  CAQ   D T   3       6.119   5.248   9.900  1.00 24.02     0.140 C 
ENDBRANCH  13  16
ENDBRANCH   6  10
BRANCH   7  22
HETATM   22  CAY   D T   3      -2.939  -2.133  10.971  1.00 18.73     0.007 A 
HETATM   23  CAD   D T   3      -2.217  -3.037  11.729  1.00 18.59     0.021 A 
HETATM   24  CAC   D T   3      -2.621  -4.381  11.861  1.00 18.90     0.099 A 
HETATM   25  NAR   D T   3      -3.678  -4.842  11.185  1.00 18.61    -0.244 NA
HETATM   26  CBA   D T   3      -4.406  -4.026  10.410  1.00 14.95     0.081 A 
HETATM   27  CAI   D T   3      -5.504  -4.525   9.716  1.00 16.02     0.019 A 
HETATM   28  CBB   D T   3      -4.051  -2.666  10.255  1.00 17.98     0.018 A 
HETATM   29  CAA   D T   3      -6.258  -3.730   8.871  1.00 23.51     0.002 A 
HETATM   30  CAB   D T   3      -5.928  -2.388   8.713  1.00 19.31     0.000 A 
HETATM   31  CAJ   D T   3      -4.839  -1.881   9.422  1.00 21.46     0.002 A 
ENDBRANCH   7  22
TORSDOF 3
ENDMDL
MODEL 3
REMARK VINA RESULT:   -10.843      2.207     10.774
REMARK INTER + INTRA:         -12.404
REMARK INTER:                 -11.685
REMARK INTRA:                  -0.719
REMARK UNBOUND:                 0.341
REMARK  3 active torsions:
REMARK  status: ('A' for Active; 'I' for Inactive)
REMARK    1  A    between atoms: CAV_22  and  CAW_23 
REMARK    2  A    between atoms: CAX_24  and  NBD_30 
REMARK    3  A    between atoms: CAY_25  and  CAZ_26 
ROOT
HETATM    1  CAK   D T   3      -1.641  -5.210  11.838  1.00 20.96     0.102 A 
HETATM    2  CAL   D T   3      -3.249  -9.199  12.814  1.00 13.59     0.124 A 
HETATM    3  CAM   D T   3      -3.868  -6.043  11.511  1.00 18.11     0.104 A 
HETATM    4  NAS   D T   3      -1.218  -6.408  12.349  1.00 13.25    -0.225 NA
HETATM    5  NAT   D T   3      -4.084  -8.293  12.251  1.00 15.72    -0.162 NA
HETATM    6  CAW   D T   3      -2.946  -5.020  11.369  1.00 22.75     0.038 A 
HETATM    7  CAZ   D T   3      -2.037  -8.700  12.988  1.00 12.88     0.057 A 
HETATM    8  CBC   D T   3      -2.117  -7.412  12.491  1.00 11.55     0.165 A 
HETATM    9  NBE   D T   3      -3.463  -7.237  12.054  1.00 16.74    -0.211 N 
ENDROOT
BRANCH   6  10
HETATM   10  CAV   D T   3      -3.404  -3.787  10.863  1.00 21.40     0.003 A 
HETATM   11  CAE   D T   3      -2.727  -2.625  11.192  1.00 24.66     0.002 A 
HETATM   12  CAG   D T   3      -3.149  -1.377  10.735  1.00 27.57     0.017 A 
HETATM   13  CAX   D T   3      -4.311  -1.272   9.992  1.00 20.12     0.056 A 
HETATM   14  CAH   D T   3      -5.022  -2.416   9.697  1.00 21.49     0.017 A 
HETATM   15  CAF   D T   3      -4.586  -3.687  10.114  1.00 24.93     0.002 A 
BRANCH  13  16
HETATM   16  NBD   D T   3      -4.731   0.044   9.615  1.00 29.07    -0.344 N 
HETATM   17  CAP   D T   3      -4.645   1.153  10.571  1.00 43.49     0.140 C 
HETATM   18  CAN   D T   3      -4.012   2.313   9.816  1.00 58.34     0.314 C 
HETATM   19  NAU   D T   3      -4.950   2.850   8.805  1.00 37.54     0.343 N 
HETATM   20  CAO   D T   3      -5.570   1.789   7.974  1.00 35.80     0.314 C 
HETATM   21  CAQ   D T   3      -4.946   0.385   8.201  1.00 24.02     0.140 C 
ENDBRANCH  13  16
ENDBRANCH   6  10
BRANCH   7  22
HETATM   22  CAY   D T   3      -0.879  -9.381  13.554  1.00 18.73     0.007 A 
HETATM   23  CAD   D T   3      -0.541  -9.115  14.868  1.00 18.59     0.021 A 
HETATM   24  CAC   D T   3       0.558  -9.742  15.491  1.00 18.90     0.099 A 
HETATM   25  NAR   D T   3       1.358 -10.556  14.796  1.00 18.61    -0.244 NA
HETATM   26  CBA   D T   3       1.104 -10.835  13.510  1.00 14.95     0.081 A 
HETATM   27  CAI   D T   3       1.949 -11.687  12.804  1.00 16.02     0.019 A 
HETATM   28  CBB   D T   3       0.006 -10.243  12.843  1.00 17.98     0.018 A 
HETATM   29  CAA   D T   3       1.751 -11.968  11.464  1.00 23.51     0.002 A 
HETATM   30  CAB   D T   3       0.671 -11.401  10.795  1.00 19.31     0.000 A 
HETATM   31  CAJ   D T   3      -0.188 -10.562  11.505  1.00 21.46     0.002 A 
ENDBRANCH   7  22
TORSDOF 3
ENDMDL
MODEL 4
REMARK VINA RESULT:   -10.690      1.878     11.002
REMARK INTER + INTRA:         -12.223
REMARK INTER:                 -11.556
REMARK INTRA:                  -0.667
REMARK UNBOUND:                 0.341
REMARK  3 active torsions:
REMARK  status: ('A' for Active; 'I' for Inactive)
REMARK    1  A    between atoms: CAV_22  and  CAW_23 
REMARK    2  A    between atoms: CAX_24  and  NBD_30 
REMARK    3  A    between atoms: CAY_25  and  CAZ_26 
ROOT
HETATM    1  CAK   D T   3      -3.203  -6.716  11.169  1.00 20.96     0.102 A 
HETATM    2  CAL   D T   3       0.657  -8.539  12.275  1.00 13.59     0.124 A 
HETATM    3  CAM   D T   3      -1.095  -5.633  11.548  1.00 18.11     0.104 A 
HETATM    4  NAS   D T   3      -2.677  -7.946  11.460  1.00 13.25    -0.225 NA
HETATM    5  NAT   D T   3       0.606  -7.194  12.122  1.00 15.72    -0.162 NA
HETATM    6  CAW   D T   3      -2.445  -5.543  11.254  1.00 22.75     0.038 A 
HETATM    7  CAZ   D T   3      -0.518  -9.099  12.048  1.00 12.88     0.057 A 
HETATM    8  CBC   D T   3      -1.356  -8.040  11.749  1.00 11.55     0.165 A 
HETATM    9  NBE   D T   3      -0.549  -6.866  11.808  1.00 16.74    -0.211 N 
ENDROOT
BRANCH   6  10
HETATM   10  CAV   D T   3      -2.964  -4.272  10.932  1.00 21.40     0.003 A 
HETATM   11  CAE   D T   3      -2.211  -3.143  11.201  1.00 24.66     0.002 A 
HETATM   12  CAG   D T   3      -2.684  -1.862  10.921  1.00 27.57     0.017 A 
HETATM   13  CAX   D T   3      -3.965  -1.694  10.427  1.00 20.12     0.056 A 
HETATM   14  CAH   D T   3      -4.745  -2.808  10.198  1.00 21.49     0.017 A 
HETATM   15  CAF   D T   3      -4.266  -4.109  10.434  1.00 24.93     0.002 A 
BRANCH  13  16
HETATM   16  NBD   D T   3      -4.420  -0.350  10.229  1.00 29.07    -0.344 N 
HETATM   17  CAP   D T   3      -4.148   0.682  11.235  1.00 43.49     0.140 C 
HETATM   18  CAN   D T   3      -3.635   1.893  10.470  1.00 58.34     0.314 C 
HETATM   19  NAU   D T   3      -4.725   2.511   9.682  1.00 37.54     0.343 N 
HETATM   20  CAO   D T   3      -5.500   1.520   8.896  1.00 35.80     0.314 C 
HETATM   21  CAQ   D T   3      -4.872   0.099   8.904  1.00 24.02     0.140 C 
ENDBRANCH  13  16
ENDBRANCH   6  10
BRANCH   7  22
HETATM   22  CAY   D T   3      -0.846 -10.517  12.127  1.00 18.73     0.007 A 
HETATM   23  CAD   D T   3      -0.337 -11.362  11.157  1.00 18.59     0.021 A 
HETATM   24  CAC   D T   3      -0.599 -12.747  11.171  1.00 18.90     0.099 A 
HETATM   25  NAR   D T   3      -1.421 -13.273  12.083  1.00 18.61    -0.244 NA
HETATM   26  CBA   D T   3      -1.971 -12.506  13.036  1.00 14.95     0.081 A 
HETATM   27  CAI   D T   3      -2.824 -13.074  13.978  1.00 16.02     0.019 A 
HETATM   28  CBB   D T   3      -1.729 -11.113  13.074  1.00 17.98     0.018 A 
HETATM   29  CAA   D T   3      -3.448 -12.314  14.951  1.00 23.51     0.002 A 
HETATM   30  CAB   D T   3      -3.213 -10.944  15.009  1.00 19.31     0.000 A 
HETATM   31  CAJ   D T   3      -2.345 -10.376  14.077  1.00 21.46     0.002 A 
ENDBRANCH   7  22
TORSDOF 3
ENDMDL
MODEL 5
REMARK VINA RESULT:   -10.615      1.136      2.396
REMARK INTER + INTRA:         -12.136
REMARK INTER:                 -12.454
REMARK INTRA:                   0.319
REMARK UNBOUND:                 0.341
REMARK  3 active torsions:
REMARK  status: ('A' for Active; 'I' for Inactive)
REMARK    1  A    between atoms: CAV_22  and  CAW_23 
REMARK    2  A    between atoms: CAX_24  and  NBD_30 
REMARK    3  A    between atoms: CAY_25  and  CAZ_26 
ROOT
HETATM    1  CAK   D T   3      -3.915  -5.226  10.974  1.00 20.96     0.102 A 
HETATM    2  CAL   D T   3      -1.964  -1.287  11.328  1.00 13.59     0.124 A 
HETATM    3  CAM   D T   3      -1.841  -4.679  12.049  1.00 18.11     0.104 A 
HETATM    4  NAS   D T   3      -4.106  -3.929  10.577  1.00 13.25    -0.225 NA
HETATM    5  NAT   D T   3      -1.346  -2.359  11.880  1.00 15.72    -0.162 NA
HETATM    6  CAW   D T   3      -2.769  -5.632  11.666  1.00 22.75     0.038 A 
HETATM    7  CAZ   D T   3      -3.106  -1.626  10.756  1.00 12.88     0.057 A 
HETATM    8  CBC   D T   3      -3.200  -2.992  10.950  1.00 11.55     0.165 A 
HETATM    9  NBE   D T   3      -2.039  -3.370  11.687  1.00 16.74    -0.211 N 
ENDROOT
BRANCH   6  10
HETATM   10  CAV   D T   3      -2.570  -6.958  12.103  1.00 21.40     0.003 A 
HETATM   11  CAE   D T   3      -3.668  -7.752  12.386  1.00 24.66     0.002 A 
HETATM   12  CAG   D T   3      -3.527  -9.062  12.839  1.00 27.57     0.017 A 
HETATM   13  CAX   D T   3      -2.266  -9.574  13.084  1.00 20.12     0.056 A 
HETATM   14  CAH   D T   3      -1.164  -8.779  12.852  1.00 21.49     0.017 A 
HETATM   15  CAF   D T   3      -1.287  -7.469  12.354  1.00 24.93     0.002 A 
BRANCH  13  16
HETATM   16  NBD   D T   3      -2.190 -10.901  13.618  1.00 29.07    -0.344 N 
HETATM   17  CAP   D T   3      -1.328 -11.907  12.989  1.00 43.49     0.140 C 
HETATM   18  CAN   D T   3      -0.559 -12.572  14.122  1.00 58.34     0.314 C 
HETATM   19  NAU   D T   3      -1.462 -13.411  14.942  1.00 37.54     0.343 N 
HETATM   20  CAO   D T   3      -2.712 -12.708  15.323  1.00 35.80     0.314 C 
HETATM   21  CAQ   D T   3      -2.703 -11.197  14.964  1.00 24.02     0.140 C 
ENDBRANCH  13  16
ENDBRANCH   6  10
BRANCH   7  22
HETATM   22  CAY   D T   3      -4.034  -0.747  10.056  1.00 18.73     0.007 A 
HETATM   23  CAD   D T   3      -5.270  -1.252   9.695  1.00 18.59     0.021 A 
HETATM   24  CAC   D T   3      -6.226  -0.461   9.027  1.00 18.90     0.099 A 
HETATM   25  NAR   D T   3      -5.931   0.786   8.648  1.00 18.61    -0.244 NA
HETATM   26  CBA   D T   3      -4.740   1.329   8.941  1.00 14.95     0.081 A 
HETATM   27  CAI   D T   3      -4.452   2.630   8.539  1.00 16.02     0.019 A 
HETATM   28  CBB   D T   3      -3.751   0.582   9.622  1.00 17.98     0.018 A 
HETATM   29  CAA   D T   3      -3.222   3.214   8.781  1.00 23.51     0.002 A 
HETATM   30  CAB   D T   3      -2.241   2.497   9.457  1.00 19.31     0.000 A 
HETATM   31  CAJ   D T   3      -2.534   1.200   9.877  1.00 21.46     0.002 A 
ENDBRANCH   7  22
TORSDOF 3
ENDMDL
MODEL 6
REMARK VINA RESULT:   -10.581      4.847     11.169
REMARK INTER + INTRA:         -12.095
REMARK INTER:                 -11.445
REMARK INTRA:                  -0.650
REMARK UNBOUND:                 0.341
REMARK  3 active torsions:
REMARK  status: ('A' for Active; 'I' for Inactive)
REMARK    1  A    between atoms: CAV_22  and  CAW_23 
REMARK    2  A    between atoms: CAX_24  and  NBD_30 
REMARK    3  A    between atoms: CAY_25  and  CAZ_26 
ROOT
HETATM    1  CAK   D T   3       0.182   0.118   9.492  1.00 20.96     0.102 A 
HETATM    2  CAL   D T   3      -3.870   0.723  11.124  1.00 13.59     0.124 A 
HETATM    3  CAM   D T   3      -0.691   2.030  10.649  1.00 18.11     0.104 A 
HETATM    4  NAS   D T   3      -1.021  -0.533   9.563  1.00 13.25    -0.225 NA
HETATM    5  NAT   D T   3      -2.967   1.723  11.268  1.00 15.72    -0.162 NA
HETATM    6  CAW   D T   3       0.356   1.417   9.983  1.00 22.75     0.038 A 
HETATM    7  CAZ   D T   3      -3.349  -0.315  10.493  1.00 12.88     0.057 A 
HETATM    8  CBC   D T   3      -2.049   0.065  10.214  1.00 11.55     0.165 A 
HETATM    9  NBE   D T   3      -1.892   1.374  10.756  1.00 16.74    -0.211 N 
ENDROOT
BRANCH   6  10
HETATM   10  CAV   D T   3       1.594   2.090   9.941  1.00 21.40     0.003 A 
HETATM   11  CAE   D T   3       2.601   1.609   9.122  1.00 24.66     0.002 A 
HETATM   12  CAG   D T   3       3.849   2.226   9.057  1.00 27.57     0.017 A 
HETATM   13  CAX   D T   3       4.129   3.305   9.876  1.00 20.12     0.056 A 
HETATM   14  CAH   D T   3       3.150   3.766  10.731  1.00 21.49     0.017 A 
HETATM   15  CAF   D T   3       1.872   3.182  10.778  1.00 24.93     0.002 A 
BRANCH  13  16
HETATM   16  NBD   D T   3       5.452   3.848   9.815  1.00 29.07    -0.344 N 
HETATM   17  CAP   D T   3       6.602   2.976   9.553  1.00 43.49     0.140 C 
HETATM   18  CAN   D T   3       7.432   3.679   8.489  1.00 58.34     0.314 C 
HETATM   19  NAU   D T   3       8.082   4.885   9.049  1.00 37.54     0.343 N 
HETATM   20  CAO   D T   3       7.145   5.740   9.819  1.00 35.80     0.314 C 
HETATM   21  CAQ   D T   3       5.661   5.298   9.690  1.00 24.02     0.140 C 
ENDBRANCH  13  16
ENDBRANCH   6  10
BRANCH   7  22
HETATM   22  CAY   D T   3      -4.020  -1.563  10.151  1.00 18.73     0.007 A 
HETATM   23  CAD   D T   3      -5.134  -1.505   9.333  1.00 18.59     0.021 A 
HETATM   24  CAC   D T   3      -5.830  -2.669   8.948  1.00 18.90     0.099 A 
HETATM   25  NAR   D T   3      -5.479  -3.863   9.435  1.00 18.61    -0.244 NA
HETATM   26  CBA   D T   3      -4.426  -3.986  10.256  1.00 14.95     0.081 A 
HETATM   27  CAI   D T   3      -4.075  -5.239  10.751  1.00 16.02     0.019 A 
HETATM   28  CBB   D T   3      -3.686  -2.851  10.661  1.00 17.98     0.018 A 
HETATM   29  CAA   D T   3      -3.024  -5.407  11.635  1.00 23.51     0.002 A 
HETATM   30  CAB   D T   3      -2.280  -4.303  12.036  1.00 19.31     0.000 A 
HETATM   31  CAJ   D T   3      -2.618  -3.050  11.527  1.00 21.46     0.002 A 
ENDBRANCH   7  22
TORSDOF 3
ENDMDL
MODEL 7
REMARK VINA RESULT:   -10.539      1.676      2.582
REMARK INTER + INTRA:         -12.046
REMARK INTER:                 -11.531
REMARK INTRA:                  -0.515
REMARK UNBOUND:                 0.341
REMARK  3 active torsions:
REMARK  status: ('A' for Active; 'I' for Inactive)
REMARK    1  A    between atoms: CAV_22  and  CAW_23 
REMARK    2  A    between atoms: CAX_24  and  NBD_30 
REMARK    3  A    between atoms: CAY_25  and  CAZ_26 
ROOT
HETATM    1  CAK   D T   3      -2.163  -4.866  12.299  1.00 20.96     0.102 A 
HETATM    2  CAL   D T   3      -5.086  -2.919   9.632  1.00 13.59     0.124 A 
HETATM    3  CAM   D T   3      -3.732  -5.892  10.802  1.00 18.11     0.104 A 
HETATM    4  NAS   D T   3      -2.602  -3.610  11.974  1.00 13.25    -0.225 NA
HETATM    5  NAT   D T   3      -5.033  -4.273   9.644  1.00 15.72    -0.162 NA
HETATM    6  CAW   D T   3      -2.745  -6.020  11.764  1.00 22.75     0.038 A 
HETATM    7  CAZ   D T   3      -4.201  -2.391  10.460  1.00 12.88     0.057 A 
HETATM    8  CBC   D T   3      -3.568  -3.480  11.033  1.00 11.55     0.165 A 
HETATM    9  NBE   D T   3      -4.157  -4.637  10.443  1.00 16.74    -0.211 N 
ENDROOT
BRANCH   6  10
HETATM   10  CAV   D T   3      -2.287  -7.318  12.069  1.00 21.40     0.003 A 
HETATM   11  CAE   D T   3      -1.042  -7.723  11.619  1.00 24.66     0.002 A 
HETATM   12  CAG   D T   3      -0.550  -9.001  11.876  1.00 27.57     0.017 A 
HETATM   13  CAX   D T   3      -1.341  -9.924  12.535  1.00 20.12     0.056 A 
HETATM   14  CAH   D T   3      -2.603  -9.551  12.948  1.00 21.49     0.017 A 
HETATM   15  CAF   D T   3      -3.097  -8.251  12.734  1.00 24.93     0.002 A 
BRANCH  13  16
HETATM   16  NBD   D T   3      -0.808 -11.243  12.704  1.00 29.07    -0.344 N 
HETATM   17  CAP   D T   3       0.634 -11.482  12.579  1.00 43.49     0.140 C 
HETATM   18  CAN   D T   3       1.023 -12.344  13.771  1.00 58.34     0.314 C 
HETATM   19  NAU   D T   3       0.471 -13.710  13.628  1.00 37.54     0.343 N 
HETATM   20  CAO   D T   3      -0.966 -13.715  13.259  1.00 35.80     0.314 C 
HETATM   21  CAQ   D T   3      -1.620 -12.306  13.312  1.00 24.02     0.140 C 
ENDBRANCH  13  16
ENDBRANCH   6  10
BRANCH   7  22
HETATM   22  CAY   D T   3      -3.975  -0.975  10.719  1.00 18.73     0.007 A 
HETATM   23  CAD   D T   3      -5.054  -0.198  11.098  1.00 18.59     0.021 A 
HETATM   24  CAC   D T   3      -4.915   1.177  11.377  1.00 18.90     0.099 A 
HETATM   25  NAR   D T   3      -3.740   1.789  11.202  1.00 18.61    -0.244 NA
HETATM   26  CBA   D T   3      -2.658   1.101  10.810  1.00 14.95     0.081 A 
HETATM   27  CAI   D T   3      -1.444   1.757  10.635  1.00 16.02     0.019 A 
HETATM   28  CBB   D T   3      -2.743  -0.283  10.530  1.00 17.98     0.018 A 
HETATM   29  CAA   D T   3      -0.313   1.095  10.190  1.00 23.51     0.002 A 
HETATM   30  CAB   D T   3      -0.376  -0.267   9.919  1.00 19.31     0.000 A 
HETATM   31  CAJ   D T   3      -1.587  -0.931  10.110  1.00 21.46     0.002 A 
ENDBRANCH   7  22
TORSDOF 3
ENDMDL
MODEL 8
REMARK VINA RESULT:   -10.413      1.719     11.365
REMARK INTER + INTRA:         -11.898
REMARK INTER:                 -11.167
REMARK INTRA:                  -0.731
REMARK UNBOUND:                 0.341
REMARK  3 active torsions:
REMARK  status: ('A' for Active; 'I' for Inactive)
REMARK    1  A    between atoms: CAV_22  and  CAW_23 
REMARK    2  A    between atoms: CAX_24  and  NBD_30 
REMARK    3  A    between atoms: CAY_25  and  CAZ_26 
ROOT
HETATM    1  CAK   D T   3      -3.727  -7.785  12.135  1.00 20.96     0.102 A 
HETATM    2  CAL   D T   3      -0.026  -9.861  13.335  1.00 13.59     0.124 A 
HETATM    3  CAM   D T   3      -1.477  -6.950  12.127  1.00 18.11     0.104 A 
HETATM    4  NAS   D T   3      -3.327  -8.991  12.645  1.00 13.25    -0.225 NA
HETATM    5  NAT   D T   3       0.070  -8.581  12.902  1.00 15.72    -0.162 NA
HETATM    6  CAW   D T   3      -2.828  -6.735  11.914  1.00 22.75     0.038 A 
HETATM    7  CAZ   D T   3      -1.277 -10.287  13.314  1.00 12.88     0.057 A 
HETATM    8  CBC   D T   3      -2.005  -9.206  12.854  1.00 11.55     0.165 A 
HETATM    9  NBE   D T   3      -1.061  -8.167  12.606  1.00 16.74    -0.211 N 
ENDROOT
BRANCH   6  10
HETATM   10  CAV   D T   3      -3.219  -5.496  11.366  1.00 21.40     0.003 A 
HETATM   11  CAE   D T   3      -2.532  -4.349  11.723  1.00 24.66     0.002 A 
HETATM   12  CAG   D T   3      -2.889  -3.097  11.225  1.00 27.57     0.017 A 
HETATM   13  CAX   D T   3      -3.998  -2.971  10.408  1.00 20.12     0.056 A 
HETATM   14  CAH   D T   3      -4.721  -4.099  10.082  1.00 21.49     0.017 A 
HETATM   15  CAF   D T   3      -4.348  -5.375  10.541  1.00 24.93     0.002 A 
BRANCH  13  16
HETATM   16  NBD   D T   3      -4.356  -1.649   9.989  1.00 29.07    -0.344 N 
HETATM   17  CAP   D T   3      -5.343  -1.450   8.922  1.00 43.49     0.140 C 
HETATM   18  CAN   D T   3      -6.300  -0.380   9.427  1.00 58.34     0.314 C 
HETATM   19  NAU   D T   3      -5.629   0.938   9.475  1.00 37.54     0.343 N 
HETATM   20  CAO   D T   3      -4.302   0.885  10.135  1.00 35.80     0.314 C 
HETATM   21  CAQ   D T   3      -4.005  -0.482  10.811  1.00 24.02     0.140 C 
ENDBRANCH  13  16
ENDBRANCH   6  10
BRANCH   7  22
HETATM   22  CAY   D T   3      -1.764 -11.601  13.716  1.00 18.73     0.007 A 
HETATM   23  CAD   D T   3      -2.160 -11.779  15.029  1.00 18.59     0.021 A 
HETATM   24  CAC   D T   3      -2.654 -13.016  15.492  1.00 18.90     0.099 A 
HETATM   25  NAR   D T   3      -2.676 -14.082  14.687  1.00 18.61    -0.244 NA
HETATM   26  CBA   D T   3      -2.279 -13.986  13.410  1.00 14.95     0.081 A 
HETATM   27  CAI   D T   3      -2.310 -15.109  12.588  1.00 16.02     0.019 A 
HETATM   28  CBB   D T   3      -1.788 -12.765  12.893  1.00 17.98     0.018 A 
HETATM   29  CAA   D T   3      -1.870 -15.067  11.277  1.00 23.51     0.002 A 
HETATM   30  CAB   D T   3      -1.393 -13.871  10.750  1.00 19.31     0.000 A 
HETATM   31  CAJ   D T   3      -1.377 -12.741  11.566  1.00 21.46     0.002 A 
ENDBRANCH   7  22
TORSDOF 3
ENDMDL
MODEL 9
REMARK VINA RESULT:   -10.307      1.704      3.157
REMARK INTER + INTRA:         -11.774
REMARK INTER:                 -12.134
REMARK INTRA:                   0.360
REMARK UNBOUND:                 0.341
REMARK  3 active torsions:
REMARK  status: ('A' for Active; 'I' for Inactive)
REMARK    1  A    between atoms: CAV_22  and  CAW_23 
REMARK    2  A    between atoms: CAX_24  and  NBD_30 
REMARK    3  A    between atoms: CAY_25  and  CAZ_26 
ROOT
HETATM    1  CAK   D T   3      -3.724  -6.935  11.220  1.00 20.96     0.102 A 
HETATM    2  CAL   D T   3      -2.207  -2.824  11.719  1.00 13.59     0.124 A 
HETATM    3  CAM   D T   3      -1.762  -6.200  12.390  1.00 18.11     0.104 A 
HETATM    4  NAS   D T   3      -4.032  -5.657  10.837  1.00 13.25    -0.225 NA
HETATM    5  NAT   D T   3      -1.504  -3.838  12.279  1.00 15.72    -0.162 NA
HETATM    6  CAW   D T   3      -2.570  -7.236  11.953  1.00 22.75     0.038 A 
HETATM    7  CAZ   D T   3      -3.284  -3.268  11.094  1.00 12.88     0.057 A 
HETATM    8  CBC   D T   3      -3.243  -4.640  11.263  1.00 11.55     0.165 A 
HETATM    9  NBE   D T   3      -2.080  -4.911  12.041  1.00 16.74    -0.211 N 
ENDROOT
BRANCH   6  10
HETATM   10  CAV   D T   3      -2.252  -8.542  12.377  1.00 21.40     0.003 A 
HETATM   11  CAE   D T   3      -1.184  -9.203  11.795  1.00 24.66     0.002 A 
HETATM   12  CAG   D T   3      -0.839 -10.502  12.163  1.00 27.57     0.017 A 
HETATM   13  CAX   D T   3      -1.614 -11.188  13.081  1.00 20.12     0.056 A 
HETATM   14  CAH   D T   3      -2.708 -10.558  13.635  1.00 21.49     0.017 A 
HETATM   15  CAF   D T   3      -3.045  -9.233  13.306  1.00 24.93     0.002 A 
BRANCH  13  16
HETATM   16  NBD   D T   3      -1.250 -12.544  13.363  1.00 29.07    -0.344 N 
HETATM   17  CAP   D T   3      -2.250 -13.614  13.279  1.00 43.49     0.140 C 
HETATM   18  CAN   D T   3      -1.596 -14.741  12.493  1.00 58.34     0.314 C 
HETATM   19  NAU   D T   3      -0.528 -15.381  13.291  1.00 37.54     0.343 N 
HETATM   20  CAO   D T   3       0.393 -14.399  13.913  1.00 35.80     0.314 C 
HETATM   21  CAQ   D T   3       0.164 -12.943  13.422  1.00 24.02     0.140 C 
ENDBRANCH  13  16
ENDBRANCH   6  10
BRANCH   7  22
HETATM   22  CAY   D T   3      -4.269  -2.474  10.371  1.00 18.73     0.007 A 
HETATM   23  CAD   D T   3      -5.177  -3.135   9.563  1.00 18.59     0.021 A 
HETATM   24  CAC   D T   3      -6.168  -2.439   8.840  1.00 18.90     0.099 A 
HETATM   25  NAR   D T   3      -6.205  -1.104   8.853  1.00 18.61    -0.244 NA
HETATM   26  CBA   D T   3      -5.337  -0.400   9.593  1.00 14.95     0.081 A 
HETATM   27  CAI   D T   3      -5.394   0.991   9.594  1.00 16.02     0.019 A 
HETATM   28  CBB   D T   3      -4.332  -1.050  10.347  1.00 17.98     0.018 A 
HETATM   29  CAA   D T   3      -4.491   1.759  10.308  1.00 23.51     0.002 A 
HETATM   30  CAB   D T   3      -3.503   1.135  11.062  1.00 19.31     0.000 A 
HETATM   31  CAJ   D T   3      -3.455  -0.258  11.077  1.00 21.46     0.002 A 
ENDBRANCH   7  22
TORSDOF 3
ENDMDL
