MODEL 1
REMARK VINA RESULT:    -7.014      0.000      0.000
REMARK INTER + INTRA:          -8.388
REMARK INTER:                  -7.834
REMARK INTRA:                  -0.554
REMARK UNBOUND:                -0.554
REMARK  2 active torsions:
REMARK  status: ('A' for Active; 'I' for Inactive)
REMARK    1  A    between atoms: C4_4  and  C7_7 
REMARK    2  A    between atoms: C5_5  and  C15_15 
ROOT
HETATM    1  N1    D T 609     -22.284   3.823  12.772  1.00 18.00    -0.194 NA
HETATM    2  C2    D T 609     -23.381   3.104  13.278  1.00 17.14     0.239 A 
HETATM    3  C3    D T 609     -21.061   3.222  12.695  1.00 20.02     0.187 A 
HETATM    4  C4    D T 609     -20.819   1.842  13.153  1.00 21.22     0.051 A 
HETATM    5  C5    D T 609     -22.035   1.140  13.660  1.00 23.03     0.065 A 
HETATM    6  N6    D T 609     -23.276   1.784  13.743  1.00 19.22    -0.219 NA
HETATM    7  N13   D T 609     -19.982   3.891  12.235  1.00 13.94    -0.127 N 
HETATM    8  N14   D T 609     -24.626   3.759  13.341  1.00 16.83    -0.060 NA
ENDROOT
BRANCH   4   9
HETATM    9  C7    D T 609     -19.531   1.171  13.087  1.00 23.59     0.004 A 
HETATM   10  C8    D T 609     -18.616   1.227  14.199  1.00 24.10     0.001 A 
HETATM   11  C9    D T 609     -17.369   0.583  14.169  1.00 24.84     0.011 A 
HETATM   12  C10   D T 609     -16.983  -0.135  13.021  1.00 26.64     0.058 A 
HETATM   13  C11   D T 609     -17.827  -0.230  11.864  1.00 26.94     0.011 A 
HETATM   14 CL1    D T 609     -15.491  -0.867  13.119  1.00 30.15    -0.082 Cl
HETATM   15  C12   D T 609     -19.098   0.431  11.923  1.00 26.89     0.001 A 
ENDBRANCH   4   9
BRANCH   5  16
HETATM   16  C15   D T 609     -21.942  -0.338  14.149  1.00 22.10     0.046 C 
HETATM   17  C16   D T 609     -21.608  -0.650  15.578  1.00 27.93     0.007 C 
ENDBRANCH   5  16
TORSDOF 2
ENDMDL
MODEL 2
REMARK VINA RESULT:    -6.964      0.244      1.223
REMARK INTER + INTRA:          -8.332
REMARK INTER:                  -7.791
REMARK INTRA:                  -0.541
REMARK UNBOUND:                -0.554
REMARK  2 active torsions:
REMARK  status: ('A' for Active; 'I' for Inactive)
REMARK    1  A    between atoms: C4_4  and  C7_7 
REMARK    2  A    between atoms: C5_5  and  C15_15 
ROOT
HETATM    1  N1    D T 609     -22.494   3.687  12.703  1.00 18.00    -0.194 NA
HETATM    2  C2    D T 609     -23.592   2.905  13.101  1.00 17.14     0.239 A 
HETATM    3  C3    D T 609     -21.242   3.143  12.705  1.00 20.02     0.187 A 
HETATM    4  C4    D T 609     -20.973   1.761  13.141  1.00 21.22     0.051 A 
HETATM    5  C5    D T 609     -22.191   0.990  13.532  1.00 23.03     0.065 A 
HETATM    6  N6    D T 609     -23.463   1.577  13.536  1.00 19.22    -0.219 NA
HETATM    7  N13   D T 609     -20.163   3.872  12.350  1.00 13.94    -0.127 N 
HETATM    8  N14   D T 609     -24.867   3.504  13.084  1.00 16.83    -0.060 NA
ENDROOT
BRANCH   4   9
HETATM    9  C7    D T 609     -19.654   1.148  13.158  1.00 23.59     0.004 A 
HETATM   10  C8    D T 609     -19.158   0.443  12.004  1.00 24.10     0.001 A 
HETATM   11  C9    D T 609     -17.886  -0.152  11.987  1.00 24.84     0.011 A 
HETATM   12  C10   D T 609     -17.064  -0.072  13.128  1.00 26.64     0.058 A 
HETATM   13  C11   D T 609     -17.486   0.599  14.324  1.00 26.94     0.011 A 
HETATM   14 CL1    D T 609     -15.575  -0.801  12.972  1.00 30.15    -0.082 Cl
HETATM   15  C12   D T 609     -18.787   1.203  14.313  1.00 26.89     0.001 A 
ENDBRANCH   4   9
BRANCH   5  16
HETATM   16  C15   D T 609     -22.068  -0.496  13.985  1.00 22.10     0.046 C 
HETATM   17  C16   D T 609     -21.721  -0.837  15.404  1.00 27.93     0.007 C 
ENDBRANCH   5  16
TORSDOF 2
ENDMDL
MODEL 3
REMARK VINA RESULT:    -6.746      0.985      2.937
REMARK INTER + INTRA:          -8.088
REMARK INTER:                  -7.604
REMARK INTRA:                  -0.484
REMARK UNBOUND:                -0.554
REMARK  2 active torsions:
REMARK  status: ('A' for Active; 'I' for Inactive)
REMARK    1  A    between atoms: C4_4  and  C7_7 
REMARK    2  A    between atoms: C5_5  and  C15_15 
ROOT
HETATM    1  N1    D T 609     -23.465   1.522  13.595  1.00 18.00    -0.194 NA
HETATM    2  C2    D T 609     -23.597   2.844  13.133  1.00 17.14     0.239 A 
HETATM    3  C3    D T 609     -22.232   0.938  13.625  1.00 20.02     0.187 A 
HETATM    4  C4    D T 609     -21.012   1.623  13.161  1.00 21.22     0.051 A 
HETATM    5  C5    D T 609     -21.231   3.027  12.702  1.00 23.03     0.065 A 
HETATM    6  N6    D T 609     -22.509   3.599  12.666  1.00 19.22    -0.219 NA
HETATM    7  N13   D T 609     -22.072  -0.336  14.042  1.00 13.94    -0.127 N 
HETATM    8  N14   D T 609     -24.886   3.411  13.118  1.00 16.83    -0.060 NA
ENDROOT
BRANCH   4   9
HETATM    9  C7    D T 609     -19.683   1.032  13.177  1.00 23.59     0.004 A 
HETATM   10  C8    D T 609     -19.203   0.274  12.050  1.00 24.10     0.001 A 
HETATM   11  C9    D T 609     -17.923  -0.302  12.033  1.00 24.84     0.011 A 
HETATM   12  C10   D T 609     -17.075  -0.150  13.148  1.00 26.64     0.058 A 
HETATM   13  C11   D T 609     -17.480   0.576  14.317  1.00 26.94     0.011 A 
HETATM   14 CL1    D T 609     -15.579  -0.865  12.994  1.00 30.15    -0.082 Cl
HETATM   15  C12   D T 609     -18.789   1.160  14.307  1.00 26.89     0.001 A 
ENDBRANCH   4   9
BRANCH   5  16
HETATM   16  C15   D T 609     -20.028   3.890  12.212  1.00 22.10     0.046 C 
HETATM   17  C16   D T 609     -19.433   3.669  10.853  1.00 27.93     0.007 C 
ENDBRANCH   5  16
TORSDOF 2
ENDMDL
MODEL 4
REMARK VINA RESULT:    -6.656      3.261      5.171
REMARK INTER + INTRA:          -7.988
REMARK INTER:                  -7.445
REMARK INTRA:                  -0.543
REMARK UNBOUND:                -0.554
REMARK  2 active torsions:
REMARK  status: ('A' for Active; 'I' for Inactive)
REMARK    1  A    between atoms: C4_4  and  C7_7 
REMARK    2  A    between atoms: C5_5  and  C15_15 
ROOT
HETATM    1  N1    D T 609     -22.678   2.366  14.104  1.00 18.00    -0.194 NA
HETATM    2  C2    D T 609     -21.517   2.641  13.361  1.00 17.14     0.239 A 
HETATM    3  C3    D T 609     -23.087   1.073  14.263  1.00 20.02     0.187 A 
HETATM    4  C4    D T 609     -22.377  -0.069  13.658  1.00 21.22     0.051 A 
HETATM    5  C5    D T 609     -21.146   0.303  12.900  1.00 23.03     0.065 A 
HETATM    6  N6    D T 609     -20.756   1.639  12.739  1.00 19.22    -0.219 NA
HETATM    7  N13   D T 609     -24.209   0.774  14.951  1.00 13.94    -0.127 N 
HETATM    8  N14   D T 609     -21.128   3.987  13.221  1.00 16.83    -0.060 NA
ENDROOT
BRANCH   4   9
HETATM    9  C7    D T 609     -22.784  -1.458  13.805  1.00 23.59     0.004 A 
HETATM   10  C8    D T 609     -23.608  -2.091  12.807  1.00 24.10     0.001 A 
HETATM   11  C9    D T 609     -24.009  -3.431  12.917  1.00 24.84     0.011 A 
HETATM   12  C10   D T 609     -23.611  -4.189  14.035  1.00 26.64     0.058 A 
HETATM   13  C11   D T 609     -22.803  -3.633  15.081  1.00 26.94     0.011 A 
HETATM   14 CL1    D T 609     -24.139  -5.769  14.036  1.00 30.15    -0.082 Cl
HETATM   15  C12   D T 609     -22.400  -2.264  14.942  1.00 26.89     0.001 A 
ENDBRANCH   4   9
BRANCH   5  16
HETATM   16  C15   D T 609     -20.271  -0.802  12.232  1.00 22.10     0.046 C 
HETATM   17  C16   D T 609     -19.159  -1.460  12.993  1.00 27.93     0.007 C 
ENDBRANCH   5  16
TORSDOF 2
ENDMDL
MODEL 5
REMARK VINA RESULT:    -6.644      3.893      6.035
REMARK INTER + INTRA:          -7.974
REMARK INTER:                  -7.506
REMARK INTRA:                  -0.468
REMARK UNBOUND:                -0.554
REMARK  2 active torsions:
REMARK  status: ('A' for Active; 'I' for Inactive)
REMARK    1  A    between atoms: C4_4  and  C7_7 
REMARK    2  A    between atoms: C5_5  and  C15_15 
ROOT
HETATM    1  N1    D T 609     -19.192   1.928  12.450  1.00 18.00    -0.194 NA
HETATM    2  C2    D T 609     -19.601   1.007  13.430  1.00 17.14     0.239 A 
HETATM    3  C3    D T 609     -20.022   2.952  12.097  1.00 20.02     0.187 A 
HETATM    4  C4    D T 609     -21.365   3.128  12.679  1.00 21.22     0.051 A 
HETATM    5  C5    D T 609     -21.720   2.121  13.723  1.00 23.03     0.065 A 
HETATM    6  N6    D T 609     -20.856   1.071  14.057  1.00 19.22    -0.219 NA
HETATM    7  N13   D T 609     -19.670   3.841  11.144  1.00 13.94    -0.127 N 
HETATM    8  N14   D T 609     -18.715  -0.035  13.766  1.00 16.83    -0.060 NA
ENDROOT
BRANCH   4   9
HETATM    9  C7    D T 609     -22.277   4.205  12.327  1.00 23.59     0.004 A 
HETATM   10  C8    D T 609     -23.370   3.973  11.418  1.00 24.10     0.001 A 
HETATM   11  C9    D T 609     -24.272   4.990  11.065  1.00 24.84     0.011 A 
HETATM   12  C10   D T 609     -24.108   6.282  11.600  1.00 26.64     0.058 A 
HETATM   13  C11   D T 609     -23.038   6.603  12.500  1.00 26.94     0.011 A 
HETATM   14 CL1    D T 609     -25.253   7.391  11.117  1.00 30.15    -0.082 Cl
HETATM   15  C12   D T 609     -22.136   5.545  12.850  1.00 26.89     0.001 A 
ENDBRANCH   4   9
BRANCH   5  16
HETATM   16  C15   D T 609     -23.096   2.198  14.453  1.00 22.10     0.046 C 
HETATM   17  C16   D T 609     -24.249   1.352  14.000  1.00 27.93     0.007 C 
ENDBRANCH   5  16
TORSDOF 2
ENDMDL
MODEL 6
REMARK VINA RESULT:    -6.609      2.813      4.328
REMARK INTER + INTRA:          -7.935
REMARK INTER:                  -7.501
REMARK INTRA:                  -0.434
REMARK UNBOUND:                -0.554
REMARK  2 active torsions:
REMARK  status: ('A' for Active; 'I' for Inactive)
REMARK    1  A    between atoms: C4_4  and  C7_7 
REMARK    2  A    between atoms: C5_5  and  C15_15 
ROOT
HETATM    1  N1    D T 609     -23.636   7.245  13.033  1.00 18.00    -0.194 NA
HETATM    2  C2    D T 609     -24.773   7.025  12.237  1.00 17.14     0.239 A 
HETATM    3  C3    D T 609     -22.633   6.319  13.049  1.00 20.02     0.187 A 
HETATM    4  C4    D T 609     -22.696   5.061  12.283  1.00 21.22     0.051 A 
HETATM    5  C5    D T 609     -23.926   4.908  11.451  1.00 23.03     0.065 A 
HETATM    6  N6    D T 609     -24.948   5.866  11.464  1.00 19.22    -0.219 NA
HETATM    7  N13   D T 609     -21.537   6.489  13.819  1.00 13.94    -0.127 N 
HETATM    8  N14   D T 609     -25.785   8.005  12.248  1.00 16.83    -0.060 NA
ENDROOT
BRANCH   4   9
HETATM    9  C7    D T 609     -21.649   4.052  12.277  1.00 23.59     0.004 A 
HETATM   10  C8    D T 609     -20.449   4.244  11.503  1.00 24.10     0.001 A 
HETATM   11  C9    D T 609     -19.418   3.292  11.483  1.00 24.84     0.011 A 
HETATM   12  C10   D T 609     -19.550   2.105  12.229  1.00 26.64     0.058 A 
HETATM   13  C11   D T 609     -20.718   1.827  13.015  1.00 26.94     0.011 A 
HETATM   14 CL1    D T 609     -18.250   1.068  12.135  1.00 30.15    -0.082 Cl
HETATM   15  C12   D T 609     -21.754   2.818  13.024  1.00 26.89     0.001 A 
ENDBRANCH   4   9
BRANCH   5  16
HETATM   16  C15   D T 609     -24.119   3.642  10.560  1.00 22.10     0.046 C 
HETATM   17  C16   D T 609     -24.991   2.511  11.020  1.00 27.93     0.007 C 
ENDBRANCH   5  16
TORSDOF 2
ENDMDL
MODEL 7
REMARK VINA RESULT:    -6.591      3.646      5.366
REMARK INTER + INTRA:          -7.916
REMARK INTER:                  -7.574
REMARK INTRA:                  -0.342
REMARK UNBOUND:                -0.554
REMARK  2 active torsions:
REMARK  status: ('A' for Active; 'I' for Inactive)
REMARK    1  A    between atoms: C4_4  and  C7_7 
REMARK    2  A    between atoms: C5_5  and  C15_15 
ROOT
HETATM    1  N1    D T 609     -19.283   0.136  12.333  1.00 18.00    -0.194 NA
HETATM    2  C2    D T 609     -20.040  -0.807  13.049  1.00 17.14     0.239 A 
HETATM    3  C3    D T 609     -19.691   1.438  12.292  1.00 20.02     0.187 A 
HETATM    4  C4    D T 609     -20.924   1.910  12.948  1.00 21.22     0.051 A 
HETATM    5  C5    D T 609     -21.663   0.853  13.702  1.00 23.03     0.065 A 
HETATM    6  N6    D T 609     -21.231  -0.479  13.715  1.00 19.22    -0.219 NA
HETATM    7  N13   D T 609     -18.999   2.366  11.596  1.00 13.94    -0.127 N 
HETATM    8  N14   D T 609     -19.585  -2.140  13.066  1.00 16.83    -0.060 NA
ENDROOT
BRANCH   4   9
HETATM    9  C7    D T 609     -21.390   3.287  12.925  1.00 23.59     0.004 A 
HETATM   10  C8    D T 609     -22.467   3.683  12.055  1.00 24.10     0.001 A 
HETATM   11  C9    D T 609     -22.944   5.003  12.016  1.00 24.84     0.011 A 
HETATM   12  C10   D T 609     -22.355   5.982  12.840  1.00 26.64     0.058 A 
HETATM   13  C11   D T 609     -21.268   5.676  13.726  1.00 26.94     0.011 A 
HETATM   14 CL1    D T 609     -23.023   7.502  12.713  1.00 30.15    -0.082 Cl
HETATM   15  C12   D T 609     -20.804   4.319  13.751  1.00 26.89     0.001 A 
ENDBRANCH   4   9
BRANCH   5  16
HETATM   16  C15   D T 609     -22.970   1.208  14.474  1.00 22.10     0.046 C 
HETATM   17  C16   D T 609     -23.228   0.643  15.840  1.00 27.93     0.007 C 
ENDBRANCH   5  16
TORSDOF 2
ENDMDL
MODEL 8
REMARK VINA RESULT:    -6.528      2.439      4.227
REMARK INTER + INTRA:          -7.845
REMARK INTER:                  -7.300
REMARK INTRA:                  -0.546
REMARK UNBOUND:                -0.554
REMARK  2 active torsions:
REMARK  status: ('A' for Active; 'I' for Inactive)
REMARK    1  A    between atoms: C4_4  and  C7_7 
REMARK    2  A    between atoms: C5_5  and  C15_15 
ROOT
HETATM    1  N1    D T 609     -22.782   3.878  13.765  1.00 18.00    -0.194 NA
HETATM    2  C2    D T 609     -21.462   4.311  13.552  1.00 17.14     0.239 A 
HETATM    3  C3    D T 609     -23.039   2.546  13.914  1.00 20.02     0.187 A 
HETATM    4  C4    D T 609     -21.988   1.515  13.829  1.00 21.22     0.051 A 
HETATM    5  C5    D T 609     -20.612   2.055  13.618  1.00 23.03     0.065 A 
HETATM    6  N6    D T 609     -20.377   3.427  13.454  1.00 19.22    -0.219 NA
HETATM    7  N13   D T 609     -24.297   2.093  14.098  1.00 13.94    -0.127 N 
HETATM    8  N14   D T 609     -21.238   5.694  13.404  1.00 16.83    -0.060 NA
ENDROOT
BRANCH   4   9
HETATM    9  C7    D T 609     -22.225   0.088  13.981  1.00 23.59     0.004 A 
HETATM   10  C8    D T 609     -22.180  -0.529  15.282  1.00 24.10     0.001 A 
HETATM   11  C9    D T 609     -22.412  -1.902  15.461  1.00 24.84     0.011 A 
HETATM   12  C10   D T 609     -22.688  -2.714  14.344  1.00 26.64     0.058 A 
HETATM   13  C11   D T 609     -22.737  -2.183  13.012  1.00 26.94     0.011 A 
HETATM   14 CL1    D T 609     -22.962  -4.319  14.693  1.00 30.15    -0.082 Cl
HETATM   15  C12   D T 609     -22.503  -0.777  12.857  1.00 26.89     0.001 A 
ENDBRANCH   4   9
BRANCH   5  16
HETATM   16  C15   D T 609     -19.392   1.088  13.540  1.00 22.10     0.046 C 
HETATM   17  C16   D T 609     -18.547   0.824  14.752  1.00 27.93     0.007 C 
ENDBRANCH   5  16
TORSDOF 2
ENDMDL
MODEL 9
REMARK VINA RESULT:    -6.474      3.418      5.050
REMARK INTER + INTRA:          -7.785
REMARK INTER:                  -7.253
REMARK INTRA:                  -0.531
REMARK UNBOUND:                -0.554
REMARK  2 active torsions:
REMARK  status: ('A' for Active; 'I' for Inactive)
REMARK    1  A    between atoms: C4_4  and  C7_7 
REMARK    2  A    between atoms: C5_5  and  C15_15 
ROOT
HETATM    1  N1    D T 609     -19.968   1.332  12.606  1.00 18.00    -0.194 NA
HETATM    2  C2    D T 609     -20.635   2.449  13.140  1.00 17.14     0.239 A 
HETATM    3  C3    D T 609     -20.506   0.087  12.760  1.00 20.02     0.187 A 
HETATM    4  C4    D T 609     -21.758  -0.155  13.500  1.00 21.22     0.051 A 
HETATM    5  C5    D T 609     -22.414   1.080  14.023  1.00 23.03     0.065 A 
HETATM    6  N6    D T 609     -21.833   2.345  13.863  1.00 19.22    -0.219 NA
HETATM    7  N13   D T 609     -19.882  -1.009  12.278  1.00 13.94    -0.127 N 
HETATM    8  N14   D T 609     -20.047   3.716  12.959  1.00 16.83    -0.060 NA
ENDROOT
BRANCH   4   9
HETATM    9  C7    D T 609     -22.360  -1.466  13.686  1.00 23.59     0.004 A 
HETATM   10  C8    D T 609     -23.217  -2.031  12.675  1.00 24.10     0.001 A 
HETATM   11  C9    D T 609     -23.806  -3.297  12.823  1.00 24.84     0.011 A 
HETATM   12  C10   D T 609     -23.567  -4.044  13.992  1.00 26.64     0.058 A 
HETATM   13  C11   D T 609     -22.738  -3.551  15.054  1.00 26.94     0.011 A 
HETATM   14 CL1    D T 609     -24.308  -5.535  14.035  1.00 30.15    -0.082 Cl
HETATM   15  C12   D T 609     -22.144  -2.259  14.876  1.00 26.89     0.001 A 
ENDBRANCH   4   9
BRANCH   5  16
HETATM   16  C15   D T 609     -23.763   0.985  14.799  1.00 22.10     0.046 C 
HETATM   17  C16   D T 609     -23.777   0.802  16.288  1.00 27.93     0.007 C 
ENDBRANCH   5  16
TORSDOF 2
ENDMDL
