MODEL 1
REMARK VINA RESULT:    -8.681      0.000      0.000
REMARK INTER + INTRA:         -13.366
REMARK INTER:                 -12.741
REMARK INTRA:                  -0.625
REMARK UNBOUND:                -0.625
REMARK  8 active torsions:
REMARK  status: ('A' for Active; 'I' for Inactive)
REMARK    1  A    between atoms: C20_8  and  C12_12 
REMARK    2  A    between atoms: C22_10  and  C19_16 
REMARK       I    between atoms: C22_10  and  N25_19 
REMARK    3  A    between atoms: C12_12  and  C18_15 
REMARK    4  A    between atoms: N25_19  and  C37_23 
REMARK    5  A    between atoms: C37_23  and  C38_24 
REMARK    6  A    between atoms: C38_24  and  N4_25 
REMARK    7  A    between atoms: N4_25  and  C39_26 
REMARK    8  A    between atoms: N4_25  and  C40_27 
ROOT
HETATM    1  C4    D T 299       0.945   8.726  10.727  1.00 31.87     0.052 C 
HETATM    2  C13   D T 299       1.727   5.099  10.066  1.00 35.43    -0.002 A 
HETATM    3  C3    D T 299       2.519   3.923   9.557  1.00 37.61     0.033 C 
HETATM    4  C14   D T 299       1.027   7.200  10.585  1.00 34.64     0.063 A 
HETATM    5  C18   D T 299       0.494   5.024  10.732  1.00 34.31     0.059 A 
HETATM    6  C19   D T 299       2.081   6.452   9.974  1.00 36.11     0.068 A 
HETATM    7  N23   D T 299       0.079   6.317  11.038  1.00 32.82    -0.254 NA
ENDROOT
BRANCH   5   8
HETATM    8  C12   D T 299      -0.214   3.706  11.007  1.00 31.34     0.075 C 
BRANCH   8   9
HETATM    9  C20   D T 299      -1.755   3.635  10.951  1.00 27.84     0.029 A 
HETATM   10  C17   D T 299      -2.467   2.684  11.776  1.00 29.49     0.020 A 
HETATM   11  C7    D T 299      -1.993   1.740  12.699  1.00 33.30     0.031 A 
HETATM   12  C16   D T 299      -3.803   2.836  11.538  1.00 26.85     0.084 A 
HETATM   13  C15   D T 299      -2.902   0.919  13.391  1.00 30.79     0.140 A 
HETATM   14  C5    D T 299      -4.275   1.053  13.166  1.00 28.60     0.031 A 
HETATM   15  F29   D T 299      -2.415   0.032  14.243  1.00 28.40    -0.204 F 
HETATM   16  C6    D T 299      -4.739   2.007  12.243  1.00 25.34     0.021 A 
HETATM   17  N24   D T 299      -3.941   3.876  10.566  1.00 26.35    -0.220 NA
HETATM   18  C21   D T 299      -2.709   4.353  10.209  1.00 26.17     0.209 A 
HETATM   19  O27   D T 299      -2.472   5.358   9.292  1.00 26.42    -0.170 OA
ENDBRANCH   8   9
ENDBRANCH   5   8
BRANCH   6  20
HETATM   20  C22   D T 299       3.361   7.002   9.300  1.00 37.52     0.276 C 
HETATM   21  N25   D T 299       3.260   7.927   8.170  1.00 36.66    -0.232 NA
HETATM   22  O28   D T 299       4.496   6.668   9.733  1.00 36.30    -0.266 OA
BRANCH  21  23
HETATM   23  C37   D T 299       4.446   8.439   7.562  1.00 41.76     0.164 C 
BRANCH  23  24
HETATM   24  C38   D T 299       5.091   7.695   6.417  1.00 43.50     0.276 C 
BRANCH  24  25
HETATM   25  N4    D T 299       6.496   7.960   6.087  1.00 42.38     0.139 N 
BRANCH  25  26
HETATM   26  C39   D T 299       7.289   6.765   6.184  1.00 41.85     0.250 C 
HETATM   27  C42   D T 299       7.004   5.775   7.264  1.00 47.83     0.037 C 
ENDBRANCH  25  26
BRANCH  25  28
HETATM   28  C40   D T 299       6.609   8.530   4.784  1.00 35.07     0.250 C 
HETATM   29  C41   D T 299       5.396   9.267   4.210  1.00 41.01     0.037 C 
ENDBRANCH  25  28
ENDBRANCH  24  25
ENDBRANCH  23  24
ENDBRANCH  21  23
ENDBRANCH   6  20
TORSDOF 8
ENDMDL
MODEL 2
REMARK VINA RESULT:    -8.613      0.606      1.346
REMARK INTER + INTRA:         -13.267
REMARK INTER:                 -12.521
REMARK INTRA:                  -0.745
REMARK UNBOUND:                -0.625
REMARK  8 active torsions:
REMARK  status: ('A' for Active; 'I' for Inactive)
REMARK    1  A    between atoms: C20_8  and  C12_12 
REMARK    2  A    between atoms: C22_10  and  C19_16 
REMARK       I    between atoms: C22_10  and  N25_19 
REMARK    3  A    between atoms: C12_12  and  C18_15 
REMARK    4  A    between atoms: N25_19  and  C37_23 
REMARK    5  A    between atoms: C37_23  and  C38_24 
REMARK    6  A    between atoms: C38_24  and  N4_25 
REMARK    7  A    between atoms: N4_25  and  C39_26 
REMARK    8  A    between atoms: N4_25  and  C40_27 
ROOT
HETATM    1  C4    D T 299       0.855   8.543  10.782  1.00 31.87     0.052 C 
HETATM    2  C13   D T 299       1.699   4.980   9.889  1.00 35.43    -0.002 A 
HETATM    3  C3    D T 299       2.530   3.848   9.345  1.00 37.61     0.033 C 
HETATM    4  C14   D T 299       0.954   7.034  10.524  1.00 34.64     0.063 A 
HETATM    5  C18   D T 299       0.421   4.854  10.455  1.00 34.31     0.059 A 
HETATM    6  C19   D T 299       2.053   6.335   9.932  1.00 36.11     0.068 A 
HETATM    7  N23   D T 299      -0.020   6.118  10.834  1.00 32.82    -0.254 NA
ENDROOT
BRANCH   5   8
HETATM    8  C12   D T 299      -0.299   3.519  10.572  1.00 31.34     0.075 C 
BRANCH   8   9
HETATM    9  C20   D T 299      -1.833   3.486  10.738  1.00 27.84     0.029 A 
HETATM   10  C17   D T 299      -2.442   2.555  11.664  1.00 29.49     0.020 A 
HETATM   11  C7    D T 299      -1.862   1.604  12.516  1.00 33.30     0.031 A 
HETATM   12  C16   D T 299      -3.794   2.739  11.619  1.00 26.85     0.084 A 
HETATM   13  C15   D T 299      -2.682   0.808  13.338  1.00 30.79     0.140 A 
HETATM   14  C5    D T 299      -4.069   0.974  13.312  1.00 28.60     0.031 A 
HETATM   15  F29   D T 299      -2.098  -0.087  14.118  1.00 28.40    -0.204 F 
HETATM   16  C6    D T 299      -4.639   1.936  12.457  1.00 25.34     0.021 A 
HETATM   17  N24   D T 299      -4.046   3.778  10.670  1.00 26.35    -0.220 NA
HETATM   18  C21   D T 299      -2.867   4.223  10.135  1.00 26.17     0.209 A 
HETATM   19  O27   D T 299      -2.741   5.219   9.186  1.00 26.42    -0.170 OA
ENDBRANCH   8   9
ENDBRANCH   5   8
BRANCH   6  20
HETATM   20  C22   D T 299       3.376   6.936   9.399  1.00 37.52     0.276 C 
HETATM   21  N25   D T 299       3.387   7.706   8.154  1.00 36.66    -0.232 NA
HETATM   22  O28   D T 299       4.446   6.778  10.044  1.00 36.30    -0.266 OA
BRANCH  21  23
HETATM   23  C37   D T 299       4.610   8.267   7.676  1.00 41.76     0.164 C 
BRANCH  23  24
HETATM   24  C38   D T 299       5.611   7.396   6.955  1.00 43.50     0.276 C 
BRANCH  24  25
HETATM   25  N4    D T 299       6.393   7.961   5.850  1.00 42.38     0.139 N 
BRANCH  25  26
HETATM   26  C39   D T 299       5.814   9.189   5.376  1.00 41.85     0.250 C 
HETATM   27  C42   D T 299       5.152   9.226   4.038  1.00 47.83     0.037 C 
ENDBRANCH  25  26
BRANCH  25  28
HETATM   28  C40   D T 299       7.748   8.168   6.244  1.00 35.07     0.250 C 
HETATM   29  C41   D T 299       8.707   8.797   5.229  1.00 41.01     0.037 C 
ENDBRANCH  25  28
ENDBRANCH  24  25
ENDBRANCH  23  24
ENDBRANCH  21  23
ENDBRANCH   6  20
TORSDOF 8
ENDMDL
MODEL 3
REMARK VINA RESULT:    -8.193      1.173      1.657
REMARK INTER + INTRA:         -12.650
REMARK INTER:                 -11.447
REMARK INTRA:                  -1.203
REMARK UNBOUND:                -0.625
REMARK  8 active torsions:
REMARK  status: ('A' for Active; 'I' for Inactive)
REMARK    1  A    between atoms: C20_8  and  C12_12 
REMARK    2  A    between atoms: C22_10  and  C19_16 
REMARK       I    between atoms: C22_10  and  N25_19 
REMARK    3  A    between atoms: C12_12  and  C18_15 
REMARK    4  A    between atoms: N25_19  and  C37_23 
REMARK    5  A    between atoms: C37_23  and  C38_24 
REMARK    6  A    between atoms: C38_24  and  N4_25 
REMARK    7  A    between atoms: N4_25  and  C39_26 
REMARK    8  A    between atoms: N4_25  and  C40_27 
ROOT
HETATM    1  C4    D T 299       0.710   8.291  11.187  1.00 31.87     0.052 C 
HETATM    2  C13   D T 299       1.492   4.780  10.062  1.00 35.43    -0.002 A 
HETATM    3  C3    D T 299       2.300   3.674   9.436  1.00 37.61     0.033 C 
HETATM    4  C14   D T 299       0.785   6.800  10.835  1.00 34.64     0.063 A 
HETATM    5  C18   D T 299       0.222   4.635  10.641  1.00 34.31     0.059 A 
HETATM    6  C19   D T 299       1.865   6.126  10.183  1.00 36.11     0.068 A 
HETATM    7  N23   D T 299      -0.197   5.878  11.105  1.00 32.82    -0.254 NA
ENDROOT
BRANCH   5   8
HETATM    8  C12   D T 299      -0.514   3.304  10.687  1.00 31.34     0.075 C 
BRANCH   8   9
HETATM    9  C20   D T 299      -2.051   3.281  10.822  1.00 27.84     0.029 A 
HETATM   10  C17   D T 299      -2.684   2.375  11.756  1.00 29.49     0.020 A 
HETATM   11  C7    D T 299      -2.127   1.442  12.642  1.00 33.30     0.031 A 
HETATM   12  C16   D T 299      -4.034   2.563  11.677  1.00 26.85     0.084 A 
HETATM   13  C15   D T 299      -2.968   0.669  13.464  1.00 30.79     0.140 A 
HETATM   14  C5    D T 299      -4.354   0.840  13.404  1.00 28.60     0.031 A 
HETATM   15  F29   D T 299      -2.405  -0.210  14.277  1.00 28.40    -0.204 F 
HETATM   16  C6    D T 299      -4.900   1.783  12.515  1.00 25.34     0.021 A 
HETATM   17  N24   D T 299      -4.261   3.581  10.699  1.00 26.35    -0.220 NA
HETATM   18  C21   D T 299      -3.069   4.009  10.179  1.00 26.17     0.209 A 
HETATM   19  O27   D T 299      -2.918   4.981   9.210  1.00 26.42    -0.170 OA
ENDBRANCH   8   9
ENDBRANCH   5   8
BRANCH   6  20
HETATM   20  C22   D T 299       3.187   6.742   9.666  1.00 37.52     0.276 C 
HETATM   21  N25   D T 299       3.292   7.207   8.282  1.00 36.66    -0.232 NA
HETATM   22  O28   D T 299       4.174   6.861  10.441  1.00 36.30    -0.266 OA
BRANCH  21  23
HETATM   23  C37   D T 299       4.512   7.785   7.817  1.00 41.76     0.164 C 
BRANCH  23  24
HETATM   24  C38   D T 299       5.543   6.924   7.128  1.00 43.50     0.276 C 
BRANCH  24  25
HETATM   25  N4    D T 299       6.452   6.104   7.937  1.00 42.38     0.139 N 
BRANCH  25  26
HETATM   26  C39   D T 299       5.937   4.774   8.113  1.00 41.85     0.250 C 
HETATM   27  C42   D T 299       5.998   4.130   9.459  1.00 47.83     0.037 C 
ENDBRANCH  25  26
BRANCH  25  28
HETATM   28  C40   D T 299       7.751   6.062   7.350  1.00 35.07     0.250 C 
HETATM   29  C41   D T 299       8.172   4.786   6.617  1.00 41.01     0.037 C 
ENDBRANCH  25  28
ENDBRANCH  24  25
ENDBRANCH  23  24
ENDBRANCH  21  23
ENDBRANCH   6  20
TORSDOF 8
ENDMDL
MODEL 4
REMARK VINA RESULT:    -7.864      2.132      3.230
REMARK INTER + INTRA:         -12.167
REMARK INTER:                 -12.023
REMARK INTRA:                  -0.143
REMARK UNBOUND:                -0.625
REMARK  8 active torsions:
REMARK  status: ('A' for Active; 'I' for Inactive)
REMARK    1  A    between atoms: C20_8  and  C12_12 
REMARK    2  A    between atoms: C22_10  and  C19_16 
REMARK       I    between atoms: C22_10  and  N25_19 
REMARK    3  A    between atoms: C12_12  and  C18_15 
REMARK    4  A    between atoms: N25_19  and  C37_23 
REMARK    5  A    between atoms: C37_23  and  C38_24 
REMARK    6  A    between atoms: C38_24  and  N4_25 
REMARK    7  A    between atoms: N4_25  and  C39_26 
REMARK    8  A    between atoms: N4_25  and  C40_27 
ROOT
HETATM    1  C4    D T 299       3.611   3.394   9.631  1.00 31.87     0.052 C 
HETATM    2  C13   D T 299       0.285   4.984  10.413  1.00 35.43    -0.002 A 
HETATM    3  C3    D T 299      -0.701   6.104  10.616  1.00 37.61     0.033 C 
HETATM    4  C14   D T 299       2.170   3.785   9.983  1.00 34.64     0.063 A 
HETATM    5  C18   D T 299       0.005   3.616  10.553  1.00 34.31     0.059 A 
HETATM    6  C19   D T 299       1.632   5.109  10.047  1.00 36.11     0.068 A 
HETATM    7  N23   D T 299       1.168   2.899  10.290  1.00 32.82    -0.254 NA
ENDROOT
BRANCH   5   8
HETATM    8  C12   D T 299      -1.366   3.094  10.955  1.00 31.34     0.075 C 
BRANCH   8   9
HETATM    9  C20   D T 299      -1.480   1.939  11.972  1.00 27.84     0.029 A 
HETATM   10  C17   D T 299      -2.782   1.477  12.402  1.00 29.49     0.020 A 
HETATM   11  C7    D T 299      -4.068   1.904  12.039  1.00 33.30     0.031 A 
HETATM   12  C16   D T 299      -2.596   0.456  13.289  1.00 26.85     0.084 A 
HETATM   13  C15   D T 299      -5.198   1.282  12.603  1.00 30.79     0.140 A 
HETATM   14  C5    D T 299      -5.036   0.234  13.514  1.00 28.60     0.031 A 
HETATM   15  F29   D T 299      -6.393   1.722  12.245  1.00 28.40    -0.204 F 
HETATM   16  C6    D T 299      -3.742  -0.189  13.866  1.00 25.34     0.021 A 
HETATM   17  N24   D T 299      -1.185   0.269  13.425  1.00 26.35    -0.220 NA
HETATM   18  C21   D T 299      -0.513   1.165  12.638  1.00 26.17     0.209 A 
HETATM   19  O27   D T 299       0.860   1.266  12.529  1.00 26.42    -0.170 OA
ENDBRANCH   8   9
ENDBRANCH   5   8
BRANCH   6  20
HETATM   20  C22   D T 299       2.377   6.443   9.801  1.00 37.52     0.276 C 
HETATM   21  N25   D T 299       2.932   6.746   8.481  1.00 36.66    -0.232 NA
HETATM   22  O28   D T 299       2.495   7.281  10.735  1.00 36.30    -0.266 OA
BRANCH  21  23
HETATM   23  C37   D T 299       3.607   7.984   8.260  1.00 41.76     0.164 C 
BRANCH  23  24
HETATM   24  C38   D T 299       5.064   7.991   7.863  1.00 43.50     0.276 C 
BRANCH  24  25
HETATM   25  N4    D T 299       5.431   7.709   6.471  1.00 42.38     0.139 N 
BRANCH  25  26
HETATM   26  C39   D T 299       4.756   8.596   5.564  1.00 41.85     0.250 C 
HETATM   27  C42   D T 299       5.477   9.116   4.364  1.00 47.83     0.037 C 
ENDBRANCH  25  26
BRANCH  25  28
HETATM   28  C40   D T 299       6.844   7.795   6.294  1.00 35.07     0.250 C 
HETATM   29  C41   D T 299       7.705   6.627   6.783  1.00 41.01     0.037 C 
ENDBRANCH  25  28
ENDBRANCH  24  25
ENDBRANCH  23  24
ENDBRANCH  21  23
ENDBRANCH   6  20
TORSDOF 8
ENDMDL
MODEL 5
REMARK VINA RESULT:    -7.667      3.160      9.945
REMARK INTER + INTRA:         -11.878
REMARK INTER:                 -10.980
REMARK INTRA:                  -0.898
REMARK UNBOUND:                -0.625
REMARK  8 active torsions:
REMARK  status: ('A' for Active; 'I' for Inactive)
REMARK    1  A    between atoms: C20_8  and  C12_12 
REMARK    2  A    between atoms: C22_10  and  C19_16 
REMARK       I    between atoms: C22_10  and  N25_19 
REMARK    3  A    between atoms: C12_12  and  C18_15 
REMARK    4  A    between atoms: N25_19  and  C37_23 
REMARK    5  A    between atoms: C37_23  and  C38_24 
REMARK    6  A    between atoms: C38_24  and  N4_25 
REMARK    7  A    between atoms: N4_25  and  C39_26 
REMARK    8  A    between atoms: N4_25  and  C40_27 
ROOT
HETATM    1  C4    D T 299      -0.363   8.251  11.304  1.00 31.87     0.052 C 
HETATM    2  C13   D T 299       0.780   5.098   9.585  1.00 35.43    -0.002 A 
HETATM    3  C3    D T 299       0.649   3.726   8.979  1.00 37.61     0.033 C 
HETATM    4  C14   D T 299       0.348   7.087  10.603  1.00 34.64     0.063 A 
HETATM    5  C18   D T 299       1.966   5.843   9.667  1.00 34.31     0.059 A 
HETATM    6  C19   D T 299      -0.245   5.864  10.156  1.00 36.11     0.068 A 
HETATM    7  N23   D T 299       1.685   7.053  10.294  1.00 32.82    -0.254 NA
ENDROOT
BRANCH   5   8
HETATM    8  C12   D T 299       3.301   5.324   9.153  1.00 31.34     0.075 C 
BRANCH   8   9
HETATM    9  C20   D T 299       4.574   6.180   9.320  1.00 27.84     0.029 A 
HETATM   10  C17   D T 299       5.000   7.062   8.255  1.00 29.49     0.020 A 
HETATM   11  C7    D T 299       4.430   7.317   6.999  1.00 33.30     0.031 A 
HETATM   12  C16   D T 299       6.137   7.697   8.663  1.00 26.85     0.084 A 
HETATM   13  C15   D T 299       5.042   8.237   6.127  1.00 30.79     0.140 A 
HETATM   14  C5    D T 299       6.208   8.902   6.518  1.00 28.60     0.031 A 
HETATM   15  F29   D T 299       4.482   8.441   4.946  1.00 28.40    -0.204 F 
HETATM   16  C6    D T 299       6.766   8.641   7.783  1.00 25.34     0.021 A 
HETATM   17  N24   D T 299       6.436   7.223   9.978  1.00 26.35    -0.220 NA
HETATM   18  C21   D T 299       5.499   6.306  10.372  1.00 26.17     0.209 A 
HETATM   19  O27   D T 299       5.482   5.645  11.584  1.00 26.42    -0.170 OA
ENDBRANCH   8   9
ENDBRANCH   5   8
BRANCH   6  20
HETATM   20  C22   D T 299      -1.724   5.427  10.295  1.00 37.52     0.276 C 
HETATM   21  N25   D T 299      -2.077   4.277  11.130  1.00 36.66    -0.232 NA
HETATM   22  O28   D T 299      -2.631   6.070   9.702  1.00 36.30    -0.266 OA
BRANCH  21  23
HETATM   23  C37   D T 299      -3.445   3.889  11.262  1.00 41.76     0.164 C 
BRANCH  23  24
HETATM   24  C38   D T 299      -3.798   2.447  11.543  1.00 43.50     0.276 C 
BRANCH  24  25
HETATM   25  N4    D T 299      -4.079   2.030  12.921  1.00 42.38     0.139 N 
BRANCH  25  26
HETATM   26  C39   D T 299      -5.017   0.942  12.954  1.00 41.85     0.250 C 
HETATM   27  C42   D T 299      -4.888  -0.113  14.003  1.00 47.83     0.037 C 
ENDBRANCH  25  26
BRANCH  25  28
HETATM   28  C40   D T 299      -2.875   1.673  13.596  1.00 35.07     0.250 C 
HETATM   29  C41   D T 299      -1.716   1.121  12.761  1.00 41.01     0.037 C 
ENDBRANCH  25  28
ENDBRANCH  24  25
ENDBRANCH  23  24
ENDBRANCH  21  23
ENDBRANCH   6  20
TORSDOF 8
ENDMDL
MODEL 6
REMARK VINA RESULT:    -7.648      2.095      2.769
REMARK INTER + INTRA:         -11.849
REMARK INTER:                 -11.238
REMARK INTRA:                  -0.611
REMARK UNBOUND:                -0.625
REMARK  8 active torsions:
REMARK  status: ('A' for Active; 'I' for Inactive)
REMARK    1  A    between atoms: C20_8  and  C12_12 
REMARK    2  A    between atoms: C22_10  and  C19_16 
REMARK       I    between atoms: C22_10  and  N25_19 
REMARK    3  A    between atoms: C12_12  and  C18_15 
REMARK    4  A    between atoms: N25_19  and  C37_23 
REMARK    5  A    between atoms: C37_23  and  C38_24 
REMARK    6  A    between atoms: C38_24  and  N4_25 
REMARK    7  A    between atoms: N4_25  and  C39_26 
REMARK    8  A    between atoms: N4_25  and  C40_27 
ROOT
HETATM    1  C4    D T 299       0.123   8.700  11.127  1.00 31.87     0.052 C 
HETATM    2  C13   D T 299       0.801   5.301   9.646  1.00 35.43    -0.002 A 
HETATM    3  C3    D T 299       1.573   4.243   8.902  1.00 37.61     0.033 C 
HETATM    4  C14   D T 299       0.154   7.250  10.626  1.00 34.64     0.063 A 
HETATM    5  C18   D T 299      -0.468   5.131  10.221  1.00 34.31     0.059 A 
HETATM    6  C19   D T 299       1.211   6.617   9.897  1.00 36.11     0.068 A 
HETATM    7  N23   D T 299      -0.849   6.332  10.812  1.00 32.82    -0.254 NA
ENDROOT
BRANCH   5   8
HETATM    8  C12   D T 299      -1.239   3.822  10.140  1.00 31.34     0.075 C 
BRANCH   8   9
HETATM    9  C20   D T 299      -1.072   2.763  11.250  1.00 27.84     0.029 A 
HETATM   10  C17   D T 299      -2.238   2.200  11.897  1.00 29.49     0.020 A 
HETATM   11  C7    D T 299      -3.604   2.445  11.690  1.00 33.30     0.031 A 
HETATM   12  C16   D T 299      -1.810   1.295  12.824  1.00 26.85     0.084 A 
HETATM   13  C15   D T 299      -4.562   1.756  12.457  1.00 30.79     0.140 A 
HETATM   14  C5    D T 299      -4.152   0.824  13.414  1.00 28.60     0.031 A 
HETATM   15  F29   D T 299      -5.839   2.024  12.241  1.00 28.40    -0.204 F 
HETATM   16  C6    D T 299      -2.780   0.583  13.608  1.00 25.34     0.021 A 
HETATM   17  N24   D T 299      -0.381   1.281  12.771  1.00 26.35    -0.220 NA
HETATM   18  C21   D T 299       0.063   2.168  11.828  1.00 26.17     0.209 A 
HETATM   19  O27   D T 299       1.386   2.412  11.516  1.00 26.42    -0.170 OA
ENDBRANCH   8   9
ENDBRANCH   5   8
BRANCH   6  20
HETATM   20  C22   D T 299       2.544   7.249   9.431  1.00 37.52     0.276 C 
HETATM   21  N25   D T 299       3.801   6.515   9.586  1.00 36.66    -0.232 NA
HETATM   22  O28   D T 299       2.550   8.391   8.900  1.00 36.30    -0.266 OA
BRANCH  21  23
HETATM   23  C37   D T 299       5.026   7.101   9.141  1.00 41.76     0.164 C 
BRANCH  23  24
HETATM   24  C38   D T 299       5.667   6.631   7.857  1.00 43.50     0.276 C 
BRANCH  24  25
HETATM   25  N4    D T 299       7.051   7.014   7.561  1.00 42.38     0.139 N 
BRANCH  25  26
HETATM   26  C39   D T 299       7.168   8.432   7.359  1.00 41.85     0.250 C 
HETATM   27  C42   D T 299       6.919   9.008   6.004  1.00 47.83     0.037 C 
ENDBRANCH  25  26
BRANCH  25  28
HETATM   28  C40   D T 299       7.927   6.584   8.601  1.00 35.07     0.250 C 
HETATM   29  C41   D T 299       9.057   7.525   9.028  1.00 41.01     0.037 C 
ENDBRANCH  25  28
ENDBRANCH  24  25
ENDBRANCH  23  24
ENDBRANCH  21  23
ENDBRANCH   6  20
TORSDOF 8
ENDMDL
MODEL 7
REMARK VINA RESULT:    -7.495      3.454     10.111
REMARK INTER + INTRA:         -11.625
REMARK INTER:                 -10.524
REMARK INTRA:                  -1.101
REMARK UNBOUND:                -0.625
REMARK  8 active torsions:
REMARK  status: ('A' for Active; 'I' for Inactive)
REMARK    1  A    between atoms: C20_8  and  C12_12 
REMARK    2  A    between atoms: C22_10  and  C19_16 
REMARK       I    between atoms: C22_10  and  N25_19 
REMARK    3  A    between atoms: C12_12  and  C18_15 
REMARK    4  A    between atoms: N25_19  and  C37_23 
REMARK    5  A    between atoms: C37_23  and  C38_24 
REMARK    6  A    between atoms: C38_24  and  N4_25 
REMARK    7  A    between atoms: N4_25  and  C39_26 
REMARK    8  A    between atoms: N4_25  and  C40_27 
ROOT
HETATM    1  C4    D T 299      -0.385   7.578  10.628  1.00 31.87     0.052 C 
HETATM    2  C13   D T 299       2.521   5.442   9.534  1.00 35.43    -0.002 A 
HETATM    3  C3    D T 299       3.236   4.182   9.120  1.00 37.61     0.033 C 
HETATM    4  C14   D T 299       0.941   6.941  10.194  1.00 34.64     0.063 A 
HETATM    5  C18   D T 299       3.108   6.711   9.653  1.00 34.31     0.059 A 
HETATM    6  C19   D T 299       1.163   5.568   9.859  1.00 36.11     0.068 A 
HETATM    7  N23   D T 299       2.130   7.613  10.060  1.00 32.82    -0.254 NA
ENDROOT
BRANCH   5   8
HETATM    8  C12   D T 299       4.585   6.962   9.387  1.00 31.34     0.075 C 
BRANCH   8   9
HETATM    9  C20   D T 299       5.034   7.525   8.022  1.00 27.84     0.029 A 
HETATM   10  C17   D T 299       6.274   8.264   7.914  1.00 29.49     0.020 A 
HETATM   11  C7    D T 299       7.230   8.589   8.888  1.00 33.30     0.031 A 
HETATM   12  C16   D T 299       6.431   8.637   6.611  1.00 26.85     0.084 A 
HETATM   13  C15   D T 299       8.373   9.326   8.528  1.00 30.79     0.140 A 
HETATM   14  C5    D T 299       8.560   9.722   7.200  1.00 28.60     0.031 A 
HETATM   15  F29   D T 299       9.246   9.623   9.476  1.00 28.40    -0.204 F 
HETATM   16  C6    D T 299       7.596   9.385   6.232  1.00 25.34     0.021 A 
HETATM   17  N24   D T 299       5.298   8.142   5.892  1.00 26.35    -0.220 NA
HETATM   18  C21   D T 299       4.455   7.478   6.741  1.00 26.17     0.209 A 
HETATM   19  O27   D T 299       3.265   6.876   6.383  1.00 26.42    -0.170 OA
ENDBRANCH   8   9
ENDBRANCH   5   8
BRANCH   6  20
HETATM   20  C22   D T 299       0.133   4.413   9.877  1.00 37.52     0.276 C 
HETATM   21  N25   D T 299       0.045   3.522  11.035  1.00 36.66    -0.232 NA
HETATM   22  O28   D T 299      -0.646   4.247   8.901  1.00 36.30    -0.266 OA
BRANCH  21  23
HETATM   23  C37   D T 299      -0.918   2.467  11.048  1.00 41.76     0.164 C 
BRANCH  23  24
HETATM   24  C38   D T 299      -1.859   2.316  12.219  1.00 43.50     0.276 C 
BRANCH  24  25
HETATM   25  N4    D T 299      -3.183   2.946  12.164  1.00 42.38     0.139 N 
BRANCH  25  26
HETATM   26  C39   D T 299      -3.461   3.460  10.851  1.00 41.85     0.250 C 
HETATM   27  C42   D T 299      -3.655   4.928  10.658  1.00 47.83     0.037 C 
ENDBRANCH  25  26
BRANCH  25  28
HETATM   28  C40   D T 299      -4.196   2.027  12.566  1.00 35.07     0.250 C 
HETATM   29  C41   D T 299      -3.928   1.145  13.788  1.00 41.01     0.037 C 
ENDBRANCH  25  28
ENDBRANCH  24  25
ENDBRANCH  23  24
ENDBRANCH  21  23
ENDBRANCH   6  20
TORSDOF 8
ENDMDL
MODEL 8
REMARK VINA RESULT:    -7.427      2.798      9.278
REMARK INTER + INTRA:         -11.526
REMARK INTER:                 -10.181
REMARK INTRA:                  -1.344
REMARK UNBOUND:                -0.625
REMARK  8 active torsions:
REMARK  status: ('A' for Active; 'I' for Inactive)
REMARK    1  A    between atoms: C20_8  and  C12_12 
REMARK    2  A    between atoms: C22_10  and  C19_16 
REMARK       I    between atoms: C22_10  and  N25_19 
REMARK    3  A    between atoms: C12_12  and  C18_15 
REMARK    4  A    between atoms: N25_19  and  C37_23 
REMARK    5  A    between atoms: C37_23  and  C38_24 
REMARK    6  A    between atoms: C38_24  and  N4_25 
REMARK    7  A    between atoms: N4_25  and  C39_26 
REMARK    8  A    between atoms: N4_25  and  C40_27 
ROOT
HETATM    1  C4    D T 299      -0.484   8.030  10.628  1.00 31.87     0.052 C 
HETATM    2  C13   D T 299       2.067   5.334   9.976  1.00 35.43    -0.002 A 
HETATM    3  C3    D T 299       2.570   3.949   9.664  1.00 37.61     0.033 C 
HETATM    4  C14   D T 299       0.738   7.131  10.399  1.00 34.64     0.063 A 
HETATM    5  C18   D T 299       2.871   6.461  10.200  1.00 34.31     0.059 A 
HETATM    6  C19   D T 299       0.729   5.735  10.086  1.00 36.11     0.068 A 
HETATM    7  N23   D T 299       2.044   7.549  10.461  1.00 32.82    -0.254 NA
ENDROOT
BRANCH   5   8
HETATM    8  C12   D T 299       4.392   6.407  10.171  1.00 31.34     0.075 C 
BRANCH   8   9
HETATM    9  C20   D T 299       5.141   6.590   8.834  1.00 27.84     0.029 A 
HETATM   10  C17   D T 299       6.184   5.661   8.455  1.00 29.49     0.020 A 
HETATM   11  C7    D T 299       6.682   4.528   9.115  1.00 33.30     0.031 A 
HETATM   12  C16   D T 299       6.671   6.047   7.239  1.00 26.85     0.084 A 
HETATM   13  C15   D T 299       7.715   3.773   8.528  1.00 30.79     0.140 A 
HETATM   14  C5    D T 299       8.233   4.146   7.285  1.00 28.60     0.031 A 
HETATM   15  F29   D T 299       8.167   2.720   9.188  1.00 28.40    -0.204 F 
HETATM   16  C6    D T 299       7.720   5.281   6.629  1.00 25.34     0.021 A 
HETATM   17  N24   D T 299       5.945   7.215   6.847  1.00 26.35    -0.220 NA
HETATM   18  C21   D T 299       5.030   7.546   7.809  1.00 26.17     0.209 A 
HETATM   19  O27   D T 299       4.162   8.619   7.757  1.00 26.42    -0.170 OA
ENDBRANCH   8   9
ENDBRANCH   5   8
BRANCH   6  20
HETATM   20  C22   D T 299      -0.503   4.811   9.929  1.00 37.52     0.276 C 
HETATM   21  N25   D T 299      -1.409   4.594  11.058  1.00 36.66    -0.232 NA
HETATM   22  O28   D T 299      -0.738   4.255   8.823  1.00 36.30    -0.266 OA
BRANCH  21  23
HETATM   23  C37   D T 299      -2.550   3.749  10.900  1.00 41.76     0.164 C 
BRANCH  23  24
HETATM   24  C38   D T 299      -2.513   2.326  11.405  1.00 43.50     0.276 C 
BRANCH  24  25
HETATM   25  N4    D T 299      -1.887   2.037  12.699  1.00 42.38     0.139 N 
BRANCH  25  26
HETATM   26  C39   D T 299      -2.830   1.459  13.617  1.00 41.85     0.250 C 
HETATM   27  C42   D T 299      -4.231   1.198  13.171  1.00 47.83     0.037 C 
ENDBRANCH  25  26
BRANCH  25  28
HETATM   28  C40   D T 299      -0.760   1.179  12.535  1.00 35.07     0.250 C 
HETATM   29  C41   D T 299       0.565   1.804  12.089  1.00 41.01     0.037 C 
ENDBRANCH  25  28
ENDBRANCH  24  25
ENDBRANCH  23  24
ENDBRANCH  21  23
ENDBRANCH   6  20
TORSDOF 8
ENDMDL
MODEL 9
REMARK VINA RESULT:    -7.097      3.013      9.308
REMARK INTER + INTRA:         -11.041
REMARK INTER:                 -10.010
REMARK INTRA:                  -1.031
REMARK UNBOUND:                -0.625
REMARK  8 active torsions:
REMARK  status: ('A' for Active; 'I' for Inactive)
REMARK    1  A    between atoms: C20_8  and  C12_12 
REMARK    2  A    between atoms: C22_10  and  C19_16 
REMARK       I    between atoms: C22_10  and  N25_19 
REMARK    3  A    between atoms: C12_12  and  C18_15 
REMARK    4  A    between atoms: N25_19  and  C37_23 
REMARK    5  A    between atoms: C37_23  and  C38_24 
REMARK    6  A    between atoms: C38_24  and  N4_25 
REMARK    7  A    between atoms: N4_25  and  C39_26 
REMARK    8  A    between atoms: N4_25  and  C40_27 
ROOT
HETATM    1  C4    D T 299      -0.059   8.278  11.250  1.00 31.87     0.052 C 
HETATM    2  C13   D T 299       1.558   5.377   9.471  1.00 35.43    -0.002 A 
HETATM    3  C3    D T 299       1.677   3.977   8.929  1.00 37.61     0.033 C 
HETATM    4  C14   D T 299       0.807   7.270  10.485  1.00 34.64     0.063 A 
HETATM    5  C18   D T 299       2.532   6.380   9.357  1.00 34.31     0.059 A 
HETATM    6  C19   D T 299       0.467   5.918  10.164  1.00 36.11     0.068 A 
HETATM    7  N23   D T 299       2.059   7.528   9.985  1.00 32.82    -0.254 NA
ENDROOT
BRANCH   5   8
HETATM    8  C12   D T 299       3.870   6.155   8.667  1.00 31.34     0.075 C 
BRANCH   8   9
HETATM    9  C20   D T 299       5.160   6.733   9.285  1.00 27.84     0.029 A 
HETATM   10  C17   D T 299       5.736   6.123  10.464  1.00 29.49     0.020 A 
HETATM   11  C7    D T 299       5.321   5.010  11.211  1.00 33.30     0.031 A 
HETATM   12  C16   D T 299       6.862   6.820  10.793  1.00 26.85     0.084 A 
HETATM   13  C15   D T 299       6.067   4.604  12.333  1.00 30.79     0.140 A 
HETATM   14  C5    D T 299       7.224   5.300  12.693  1.00 28.60     0.031 A 
HETATM   15  F29   D T 299       5.636   3.558  13.020  1.00 28.40    -0.204 F 
HETATM   16  C6    D T 299       7.633   6.410  11.932  1.00 25.34     0.021 A 
HETATM   17  N24   D T 299       7.002   7.871   9.832  1.00 26.35    -0.220 NA
HETATM   18  C21   D T 299       5.975   7.822   8.929  1.00 26.17     0.209 A 
HETATM   19  O27   D T 299       5.797   8.689   7.868  1.00 26.42    -0.170 OA
ENDBRANCH   8   9
ENDBRANCH   5   8
BRANCH   6  20
HETATM   20  C22   D T 299      -0.831   5.158  10.531  1.00 37.52     0.276 C 
HETATM   21  N25   D T 299      -0.803   4.094  11.536  1.00 36.66    -0.232 NA
HETATM   22  O28   D T 299      -1.920   5.465   9.977  1.00 36.30    -0.266 OA
BRANCH  21  23
HETATM   23  C37   D T 299      -2.008   3.408  11.877  1.00 41.76     0.164 C 
BRANCH  23  24
HETATM   24  C38   D T 299      -2.000   1.907  12.051  1.00 43.50     0.276 C 
BRANCH  24  25
HETATM   25  N4    D T 299      -2.363   1.332  13.351  1.00 42.38     0.139 N 
BRANCH  25  26
HETATM   26  C39   D T 299      -3.772   1.463  13.604  1.00 41.85     0.250 C 
HETATM   27  C42   D T 299      -4.681   0.311  13.334  1.00 47.83     0.037 C 
ENDBRANCH  25  26
BRANCH  25  28
HETATM   28  C40   D T 299      -1.967  -0.037  13.425  1.00 35.07     0.250 C 
HETATM   29  C41   D T 299      -0.496  -0.378  13.176  1.00 41.01     0.037 C 
ENDBRANCH  25  28
ENDBRANCH  24  25
ENDBRANCH  23  24
ENDBRANCH  21  23
ENDBRANCH   6  20
TORSDOF 8
ENDMDL
