MODEL 1
REMARK VINA RESULT:    -9.189      0.000      0.000
REMARK INTER + INTRA:         -10.930
REMARK INTER:                 -10.801
REMARK INTRA:                  -0.130
REMARK UNBOUND:                -0.130
REMARK  3 active torsions:
REMARK  status: ('A' for Active; 'I' for Inactive)
REMARK    1  A    between atoms: C4_1  and  C7_4 
REMARK    2  A    between atoms: C22_10  and  C2_13 
REMARK    3  A    between atoms: N8_15  and  C12_19 
ROOT
HETATM    1  C7    D T   1      25.246  -2.494 -28.092  1.00 10.24     0.174 A 
HETATM    2  N8    D T   1      25.939  -1.541 -28.773  1.00 12.35    -0.253 N 
HETATM    3  C9    D T   1      25.117  -1.195 -29.787  1.00 12.30     0.305 A 
HETATM    4  N10   D T   1      23.952  -1.871 -29.705  1.00  9.49    -0.101 NA
HETATM    5  N11   D T   1      24.024  -2.674 -28.637  1.00  9.08    -0.126 NA
HETATM    6  O27   D T   1      25.476  -0.305 -30.697  1.00 11.66    -0.147 OA
ENDROOT
BRANCH   1   7
HETATM    7  C4    D T   1      25.777  -3.115 -26.856  1.00 10.31     0.061 A 
HETATM    8  C5    D T   1      26.045  -2.401 -25.683  1.00 10.61     0.136 A 
HETATM    9  C6    D T   1      26.622  -3.024 -24.563  1.00 10.34     0.054 A 
HETATM   10  O26   D T   1      25.735  -1.099 -25.664  1.00 10.14    -0.190 OA
HETATM   11  C1    D T   1      26.950  -4.394 -24.561  1.00  9.23     0.129 A 
HETATM   12  C2    D T   1      26.683  -5.099 -25.739  1.00  9.69     0.003 A 
HETATM   13  O25   D T   1      27.506  -4.950 -23.485  1.00  9.75    -0.190 OA
HETATM   14  C3    D T   1      26.116  -4.472 -26.842  1.00 10.15     0.003 A 
BRANCH  12  15
HETATM   15  C22   D T   1      26.975  -6.591 -25.824  1.00  9.53     0.024 C 
HETATM   16  C24   D T   1      27.282  -7.176 -27.226  1.00 10.85     0.005 C 
HETATM   17  C23   D T   1      25.760  -7.312 -25.197  1.00  9.87     0.005 C 
ENDBRANCH  12  15
ENDBRANCH   1   7
BRANCH   2  18
HETATM   18  C12   D T   1      27.200  -1.077 -28.508  1.00 13.09     0.069 A 
HETATM   19  C13   D T   1      27.473   0.302 -28.481  1.00 12.86     0.019 A 
HETATM   20  C15   D T   1      28.731   0.845 -28.184  1.00 13.97     0.019 A 
HETATM   21  C16   D T   1      29.767  -0.066 -27.881  1.00 13.12     0.060 A 
HETATM   22  C17   D T   1      29.506  -1.446 -27.888  1.00 12.73     0.019 A 
HETATM   23  N19   D T   1      31.073   0.135 -27.555  1.00 12.86    -0.324 N 
HETATM   24  C14   D T   1      28.241  -1.965 -28.195  1.00 13.51     0.019 A 
HETATM   25  C18   D T   1      30.717  -2.063 -27.565  1.00 14.21     0.020 A 
HETATM   26  C20   D T   1      31.665  -1.066 -27.356  1.00 12.85     0.076 A 
HETATM   27  C21   D T   1      31.761   1.422 -27.434  1.00 13.42     0.131 C 
ENDBRANCH   2  18
TORSDOF 3
ENDMDL
MODEL 2
REMARK VINA RESULT:    -9.085      1.243      2.012
REMARK INTER + INTRA:         -10.808
REMARK INTER:                 -10.234
REMARK INTRA:                  -0.574
REMARK UNBOUND:                -0.130
REMARK  3 active torsions:
REMARK  status: ('A' for Active; 'I' for Inactive)
REMARK    1  A    between atoms: C4_1  and  C7_4 
REMARK    2  A    between atoms: C22_10  and  C2_13 
REMARK    3  A    between atoms: N8_15  and  C12_19 
ROOT
HETATM    1  C7    D T   1      26.106  -1.072 -28.134  1.00 10.24     0.174 A 
HETATM    2  N8    D T   1      27.145  -0.405 -28.708  1.00 12.35    -0.253 N 
HETATM    3  C9    D T   1      26.605   0.167 -29.805  1.00 12.30     0.305 A 
HETATM    4  N10   D T   1      25.284  -0.097 -29.876  1.00  9.49    -0.101 NA
HETATM    5  N11   D T   1      24.965  -0.860 -28.825  1.00  9.08    -0.126 NA
HETATM    6  O27   D T   1      27.337   0.877 -30.647  1.00 11.66    -0.147 OA
ENDROOT
BRANCH   1   7
HETATM    7  C4    D T   1      26.258  -1.807 -26.856  1.00 10.31     0.061 A 
HETATM    8  C5    D T   1      26.345  -1.182 -25.608  1.00 10.61     0.136 A 
HETATM    9  C6    D T   1      26.567  -1.922 -24.433  1.00 10.34     0.054 A 
HETATM   10  O26   D T   1      26.211   0.150 -25.569  1.00 10.14    -0.190 OA
HETATM   11  C1    D T   1      26.703  -3.324 -24.451  1.00  9.23     0.129 A 
HETATM   12  C2    D T   1      26.620  -3.939 -25.705  1.00  9.69     0.003 A 
HETATM   13  O25   D T   1      26.923  -3.992 -23.320  1.00  9.75    -0.190 OA
HETATM   14  C3    D T   1      26.404  -3.198 -26.860  1.00 10.15     0.003 A 
BRANCH  12  15
HETATM   15  C22   D T   1      26.725  -5.454 -25.824  1.00  9.53     0.024 C 
HETATM   16  C24   D T   1      27.274  -6.024 -27.156  1.00 10.85     0.005 C 
HETATM   17  C23   D T   1      25.313  -6.016 -25.542  1.00  9.87     0.005 C 
ENDBRANCH  12  15
ENDBRANCH   1   7
BRANCH   2  18
HETATM   18  C12   D T   1      28.446  -0.366 -28.285  1.00 13.09     0.069 A 
HETATM   19  C13   D T   1      29.142  -1.548 -27.973  1.00 12.86     0.019 A 
HETATM   20  C15   D T   1      30.483  -1.583 -27.566  1.00 13.97     0.019 A 
HETATM   21  C16   D T   1      31.161  -0.346 -27.488  1.00 13.12     0.060 A 
HETATM   22  C17   D T   1      30.485   0.841 -27.811  1.00 12.73     0.019 A 
HETATM   23  N19   D T   1      32.442  -0.045 -27.136  1.00 12.86    -0.324 N 
HETATM   24  C14   D T   1      29.142   0.852 -28.209  1.00 13.51     0.019 A 
HETATM   25  C18   D T   1      31.413   1.869 -27.625  1.00 14.21     0.020 A 
HETATM   26  C20   D T   1      32.613   1.296 -27.217  1.00 12.85     0.076 A 
HETATM   27  C21   D T   1      33.486  -0.986 -26.727  1.00 13.42     0.131 C 
ENDBRANCH   2  18
TORSDOF 3
ENDMDL
MODEL 3
REMARK VINA RESULT:    -8.955      2.414      5.738
REMARK INTER + INTRA:         -10.656
REMARK INTER:                 -10.308
REMARK INTRA:                  -0.348
REMARK UNBOUND:                -0.130
REMARK  3 active torsions:
REMARK  status: ('A' for Active; 'I' for Inactive)
REMARK    1  A    between atoms: C4_1  and  C7_4 
REMARK    2  A    between atoms: C22_10  and  C2_13 
REMARK    3  A    between atoms: N8_15  and  C12_19 
ROOT
HETATM    1  C7    D T   1      28.222  -0.766 -28.478  1.00 10.24     0.174 A 
HETATM    2  N8    D T   1      28.763  -1.663 -27.608  1.00 12.35    -0.253 N 
HETATM    3  C9    D T   1      30.055  -1.287 -27.506  1.00 12.30     0.305 A 
HETATM    4  N10   D T   1      30.287  -0.179 -28.241  1.00  9.49    -0.101 NA
HETATM    5  N11   D T   1      29.139   0.157 -28.840  1.00  9.08    -0.126 NA
HETATM    6  O27   D T   1      30.916  -1.962 -26.762  1.00 11.66    -0.147 OA
ENDROOT
BRANCH   1   7
HETATM    7  C4    D T   1      26.784  -0.791 -28.834  1.00 10.31     0.061 A 
HETATM    8  C5    D T   1      26.000   0.359 -28.975  1.00 10.61     0.136 A 
HETATM    9  C6    D T   1      24.621   0.277 -29.238  1.00 10.34     0.054 A 
HETATM   10  O26   D T   1      26.608   1.545 -28.848  1.00 10.14    -0.190 OA
HETATM   11  C1    D T   1      23.964  -0.961 -29.381  1.00  9.23     0.129 A 
HETATM   12  C2    D T   1      24.755  -2.105 -29.235  1.00  9.69     0.003 A 
HETATM   13  O25   D T   1      22.654  -1.001 -29.620  1.00  9.75    -0.190 OA
HETATM   14  C3    D T   1      26.116  -2.013 -28.971  1.00 10.15     0.003 A 
BRANCH  12  15
HETATM   15  C22   D T   1      24.141  -3.489 -29.402  1.00  9.53     0.024 C 
HETATM   16  C24   D T   1      24.546  -4.574 -28.372  1.00 10.85     0.005 C 
HETATM   17  C23   D T   1      24.490  -3.953 -30.835  1.00  9.87     0.005 C 
ENDBRANCH  12  15
ENDBRANCH   1   7
BRANCH   2  18
HETATM   18  C12   D T   1      28.140  -2.728 -27.014  1.00 13.09     0.069 A 
HETATM   19  C13   D T   1      27.263  -2.540 -25.931  1.00 12.86     0.019 A 
HETATM   20  C15   D T   1      26.568  -3.580 -25.298  1.00 13.97     0.019 A 
HETATM   21  C16   D T   1      26.763  -4.884 -25.805  1.00 13.12     0.060 A 
HETATM   22  C17   D T   1      27.623  -5.085 -26.897  1.00 12.73     0.019 A 
HETATM   23  N19   D T   1      26.243  -6.083 -25.424  1.00 12.86    -0.324 N 
HETATM   24  C14   D T   1      28.313  -4.031 -27.509  1.00 13.51     0.019 A 
HETATM   25  C18   D T   1      27.607  -6.460 -27.144  1.00 14.21     0.020 A 
HETATM   26  C20   D T   1      26.743  -7.052 -26.228  1.00 12.85     0.076 A 
HETATM   27  C21   D T   1      25.303  -6.326 -24.329  1.00 13.42     0.131 C 
ENDBRANCH   2  18
TORSDOF 3
ENDMDL
MODEL 4
REMARK VINA RESULT:    -8.683      2.480      5.167
REMARK INTER + INTRA:         -10.335
REMARK INTER:                 -10.238
REMARK INTRA:                  -0.097
REMARK UNBOUND:                -0.130
REMARK  3 active torsions:
REMARK  status: ('A' for Active; 'I' for Inactive)
REMARK    1  A    between atoms: C4_1  and  C7_4 
REMARK    2  A    between atoms: C22_10  and  C2_13 
REMARK    3  A    between atoms: N8_15  and  C12_19 
ROOT
HETATM    1  C7    D T   1      25.606  -0.766 -29.452  1.00 10.24     0.174 A 
HETATM    2  N8    D T   1      25.118  -1.941 -28.967  1.00 12.35    -0.253 N 
HETATM    3  C9    D T   1      23.905  -2.059 -29.546  1.00 12.30     0.305 A 
HETATM    4  N10   D T   1      23.676  -1.029 -30.385  1.00  9.49    -0.101 NA
HETATM    5  N11   D T   1      24.744  -0.224 -30.340  1.00  9.08    -0.126 NA
HETATM    6  O27   D T   1      23.106  -3.079 -29.277  1.00 11.66    -0.147 OA
ENDROOT
BRANCH   1   7
HETATM    7  C4    D T   1      26.959  -0.277 -29.101  1.00 10.31     0.061 A 
HETATM    8  C5    D T   1      27.491   0.932 -29.563  1.00 10.61     0.136 A 
HETATM    9  C6    D T   1      28.811   1.314 -29.263  1.00 10.34     0.054 A 
HETATM   10  O26   D T   1      26.699   1.716 -30.305  1.00 10.14    -0.190 OA
HETATM   11  C1    D T   1      29.658   0.506 -28.479  1.00  9.23     0.129 A 
HETATM   12  C2    D T   1      29.119  -0.702 -28.025  1.00  9.69     0.003 A 
HETATM   13  O25   D T   1      30.907   0.894 -28.223  1.00  9.75    -0.190 OA
HETATM   14  C3    D T   1      27.816  -1.071 -28.330  1.00 10.15     0.003 A 
BRANCH  12  15
HETATM   15  C22   D T   1      29.948  -1.630 -27.146  1.00  9.53     0.024 C 
HETATM   16  C24   D T   1      30.300  -3.025 -27.719  1.00 10.85     0.005 C 
HETATM   17  C23   D T   1      29.176  -1.776 -25.814  1.00  9.87     0.005 C 
ENDBRANCH  12  15
ENDBRANCH   1   7
BRANCH   2  18
HETATM   18  C12   D T   1      25.713  -2.781 -28.064  1.00 13.09     0.069 A 
HETATM   19  C13   D T   1      25.549  -2.590 -26.680  1.00 12.86     0.019 A 
HETATM   20  C15   D T   1      26.102  -3.430 -25.704  1.00 13.97     0.019 A 
HETATM   21  C16   D T   1      26.851  -4.539 -26.160  1.00 13.12     0.060 A 
HETATM   22  C17   D T   1      27.009  -4.752 -27.539  1.00 12.73     0.019 A 
HETATM   23  N19   D T   1      27.501  -5.524 -25.482  1.00 12.86    -0.324 N 
HETATM   24  C14   D T   1      26.453  -3.894 -28.497  1.00 13.51     0.019 A 
HETATM   25  C18   D T   1      27.795  -5.901 -27.657  1.00 14.21     0.020 A 
HETATM   26  C20   D T   1      28.078  -6.362 -26.375  1.00 12.85     0.076 A 
HETATM   27  C21   D T   1      27.589  -5.681 -24.029  1.00 13.42     0.131 C 
ENDBRANCH   2  18
TORSDOF 3
ENDMDL
MODEL 5
REMARK VINA RESULT:    -8.512      2.202      4.973
REMARK INTER + INTRA:         -10.134
REMARK INTER:                 -10.703
REMARK INTRA:                   0.569
REMARK UNBOUND:                -0.130
REMARK  3 active torsions:
REMARK  status: ('A' for Active; 'I' for Inactive)
REMARK    1  A    between atoms: C4_1  and  C7_4 
REMARK    2  A    between atoms: C22_10  and  C2_13 
REMARK    3  A    between atoms: N8_15  and  C12_19 
ROOT
HETATM    1  C7    D T   1      29.338  -2.452 -27.116  1.00 10.24     0.174 A 
HETATM    2  N8    D T   1      28.674  -1.476 -27.794  1.00 12.35    -0.253 N 
HETATM    3  C9    D T   1      29.609  -0.528 -28.009  1.00 12.30     0.305 A 
HETATM    4  N10   D T   1      30.806  -0.923 -27.528  1.00  9.49    -0.101 NA
HETATM    5  N11   D T   1      30.643  -2.133 -26.980  1.00  9.08    -0.126 NA
HETATM    6  O27   D T   1      29.315   0.609 -28.619  1.00 11.66    -0.147 OA
ENDROOT
BRANCH   1   7
HETATM    7  C4    D T   1      28.679  -3.720 -26.723  1.00 10.31     0.061 A 
HETATM    8  C5    D T   1      28.617  -4.849 -27.546  1.00 10.61     0.136 A 
HETATM    9  C6    D T   1      27.911  -6.001 -27.156  1.00 10.34     0.054 A 
HETATM   10  O26   D T   1      29.252  -4.796 -28.723  1.00 10.14    -0.190 OA
HETATM   11  C1    D T   1      27.243  -6.080 -25.919  1.00  9.23     0.129 A 
HETATM   12  C2    D T   1      27.306  -4.944 -25.105  1.00  9.69     0.003 A 
HETATM   13  O25   D T   1      26.575  -7.184 -25.585  1.00  9.75    -0.190 OA
HETATM   14  C3    D T   1      28.003  -3.810 -25.501  1.00 10.15     0.003 A 
BRANCH  12  15
HETATM   15  C22   D T   1      26.640  -4.943 -23.735  1.00  9.53     0.024 C 
HETATM   16  C24   D T   1      25.324  -5.748 -23.585  1.00 10.85     0.005 C 
HETATM   17  C23   D T   1      26.408  -3.461 -23.361  1.00  9.87     0.005 C 
ENDBRANCH  12  15
ENDBRANCH   1   7
BRANCH   2  18
HETATM   18  C12   D T   1      27.348  -1.454 -28.137  1.00 13.09     0.069 A 
HETATM   19  C13   D T   1      26.608  -0.259 -28.086  1.00 12.86     0.019 A 
HETATM   20  C15   D T   1      25.259  -0.159 -28.453  1.00 13.97     0.019 A 
HETATM   21  C16   D T   1      24.630  -1.337 -28.914  1.00 13.12     0.060 A 
HETATM   22  C17   D T   1      25.360  -2.534 -28.986  1.00 12.73     0.019 A 
HETATM   23  N19   D T   1      23.358  -1.568 -29.341  1.00 12.86    -0.324 N 
HETATM   24  C14   D T   1      26.707  -2.612 -28.607  1.00 13.51     0.019 A 
HETATM   25  C18   D T   1      24.466  -3.496 -29.461  1.00 14.21     0.020 A 
HETATM   26  C20   D T   1      23.241  -2.874 -29.680  1.00 12.85     0.076 A 
HETATM   27  C21   D T   1      22.269  -0.594 -29.427  1.00 13.42     0.131 C 
ENDBRANCH   2  18
TORSDOF 3
ENDMDL
MODEL 6
REMARK VINA RESULT:    -7.971      1.347      2.139
REMARK INTER + INTRA:          -9.499
REMARK INTER:                 -10.258
REMARK INTRA:                   0.759
REMARK UNBOUND:                -0.130
REMARK  3 active torsions:
REMARK  status: ('A' for Active; 'I' for Inactive)
REMARK    1  A    between atoms: C4_1  and  C7_4 
REMARK    2  A    between atoms: C22_10  and  C2_13 
REMARK    3  A    between atoms: N8_15  and  C12_19 
ROOT
HETATM    1  C7    D T   1      25.345  -2.538 -28.328  1.00 10.24     0.174 A 
HETATM    2  N8    D T   1      25.864  -1.332 -28.688  1.00 12.35    -0.253 N 
HETATM    3  C9    D T   1      24.837  -0.696 -29.290  1.00 12.30     0.305 A 
HETATM    4  N10   D T   1      23.724  -1.457 -29.259  1.00  9.49    -0.101 NA
HETATM    5  N11   D T   1      24.034  -2.605 -28.645  1.00  9.08    -0.126 NA
HETATM    6  O27   D T   1      24.981   0.510 -29.814  1.00 11.66    -0.147 OA
ENDROOT
BRANCH   1   7
HETATM    7  C4    D T   1      26.140  -3.540 -27.580  1.00 10.31     0.061 A 
HETATM    8  C5    D T   1      26.943  -4.508 -28.194  1.00 10.61     0.136 A 
HETATM    9  C6    D T   1      27.616  -5.486 -27.440  1.00 10.34     0.054 A 
HETATM   10  O26   D T   1      27.047  -4.473 -29.528  1.00 10.14    -0.190 OA
HETATM   11  C1    D T   1      27.524  -5.535 -26.035  1.00  9.23     0.129 A 
HETATM   12  C2    D T   1      26.715  -4.567 -25.431  1.00  9.69     0.003 A 
HETATM   13  O25   D T   1      28.167  -6.482 -25.354  1.00  9.75    -0.190 OA
HETATM   14  C3    D T   1      26.052  -3.608 -26.185  1.00 10.15     0.003 A 
BRANCH  12  15
HETATM   15  C22   D T   1      26.576  -4.520 -23.915  1.00  9.53     0.024 C 
HETATM   16  C24   D T   1      25.516  -5.448 -23.271  1.00 10.85     0.005 C 
HETATM   17  C23   D T   1      26.296  -3.046 -23.546  1.00  9.87     0.005 C 
ENDBRANCH  12  15
ENDBRANCH   1   7
BRANCH   2  18
HETATM   18  C12   D T   1      27.149  -0.892 -28.513  1.00 13.09     0.069 A 
HETATM   19  C13   D T   1      27.547   0.379 -28.966  1.00 12.86     0.019 A 
HETATM   20  C15   D T   1      28.835   0.903 -28.792  1.00 13.97     0.019 A 
HETATM   21  C16   D T   1      29.768   0.098 -28.101  1.00 13.12     0.060 A 
HETATM   22  C17   D T   1      29.381  -1.166 -27.628  1.00 12.73     0.019 A 
HETATM   23  N19   D T   1      31.071   0.314 -27.772  1.00 12.86    -0.324 N 
HETATM   24  C14   D T   1      28.089  -1.673 -27.821  1.00 13.51     0.019 A 
HETATM   25  C18   D T   1      30.514  -1.704 -27.012  1.00 14.21     0.020 A 
HETATM   26  C20   D T   1      31.539  -0.769 -27.107  1.00 12.85     0.076 A 
HETATM   27  C21   D T   1      31.868   1.504 -28.073  1.00 13.42     0.131 C 
ENDBRANCH   2  18
TORSDOF 3
ENDMDL
MODEL 7
REMARK VINA RESULT:    -7.584      1.596      2.704
REMARK INTER + INTRA:          -9.044
REMARK INTER:                  -9.767
REMARK INTRA:                   0.723
REMARK UNBOUND:                -0.130
REMARK  3 active torsions:
REMARK  status: ('A' for Active; 'I' for Inactive)
REMARK    1  A    between atoms: C4_1  and  C7_4 
REMARK    2  A    between atoms: C22_10  and  C2_13 
REMARK    3  A    between atoms: N8_15  and  C12_19 
ROOT
HETATM    1  C7    D T   1      26.328  -2.440 -28.294  1.00 10.24     0.174 A 
HETATM    2  N8    D T   1      27.058  -1.329 -28.588  1.00 12.35    -0.253 N 
HETATM    3  C9    D T   1      26.241  -0.593 -29.370  1.00 12.30     0.305 A 
HETATM    4  N10   D T   1      25.045  -1.200 -29.511  1.00  9.49    -0.101 NA
HETATM    5  N11   D T   1      25.090  -2.349 -28.828  1.00  9.08    -0.126 NA
HETATM    6  O27   D T   1      26.632   0.560 -29.888  1.00 11.66    -0.147 OA
ENDROOT
BRANCH   1   7
HETATM    7  C4    D T   1      26.844  -3.502 -27.400  1.00 10.31     0.061 A 
HETATM    8  C5    D T   1      27.566  -4.612 -27.851  1.00 10.61     0.136 A 
HETATM    9  C6    D T   1      27.966  -5.632 -26.970  1.00 10.34     0.054 A 
HETATM   10  O26   D T   1      27.862  -4.672 -29.155  1.00 10.14    -0.190 OA
HETATM   11  C1    D T   1      27.670  -5.584 -25.593  1.00  9.23     0.129 A 
HETATM   12  C2    D T   1      26.944  -4.473 -25.153  1.00  9.69     0.003 A 
HETATM   13  O25   D T   1      28.056  -6.574 -24.789  1.00  9.75    -0.190 OA
HETATM   14  C3    D T   1      26.550  -3.473 -26.032  1.00 10.15     0.003 A 
BRANCH  12  15
HETATM   15  C22   D T   1      26.602  -4.316 -23.677  1.00  9.53     0.024 C 
HETATM   16  C24   D T   1      25.528  -5.268 -23.092  1.00 10.85     0.005 C 
HETATM   17  C23   D T   1      26.177  -2.843 -23.479  1.00  9.87     0.005 C 
ENDBRANCH  12  15
ENDBRANCH   1   7
BRANCH   2  18
HETATM   18  C12   D T   1      28.344  -1.053 -28.207  1.00 13.09     0.069 A 
HETATM   19  C13   D T   1      29.214  -2.079 -27.798  1.00 12.86     0.019 A 
HETATM   20  C15   D T   1      30.550  -1.871 -27.427  1.00 13.97     0.019 A 
HETATM   21  C16   D T   1      31.035  -0.545 -27.493  1.00 13.12     0.060 A 
HETATM   22  C17   D T   1      30.183   0.488 -27.916  1.00 12.73     0.019 A 
HETATM   23  N19   D T   1      32.259  -0.022 -27.210  1.00 12.86    -0.324 N 
HETATM   24  C14   D T   1      28.849   0.257 -28.275  1.00 13.51     0.019 A 
HETATM   25  C18   D T   1      30.947   1.656 -27.860  1.00 14.21     0.020 A 
HETATM   26  C20   D T   1      32.225   1.314 -27.430  1.00 12.85     0.076 A 
HETATM   27  C21   D T   1      33.439  -0.749 -26.738  1.00 13.42     0.131 C 
ENDBRANCH   2  18
TORSDOF 3
ENDMDL
MODEL 8
REMARK VINA RESULT:    -6.870      2.003      4.706
REMARK INTER + INTRA:          -8.205
REMARK INTER:                  -8.570
REMARK INTRA:                   0.365
REMARK UNBOUND:                -0.130
REMARK  3 active torsions:
REMARK  status: ('A' for Active; 'I' for Inactive)
REMARK    1  A    between atoms: C4_1  and  C7_4 
REMARK    2  A    between atoms: C22_10  and  C2_13 
REMARK    3  A    between atoms: N8_15  and  C12_19 
ROOT
HETATM    1  C7    D T   1      28.445  -2.931 -26.401  1.00 10.24     0.174 A 
HETATM    2  N8    D T   1      28.043  -2.046 -27.354  1.00 12.35    -0.253 N 
HETATM    3  C9    D T   1      29.177  -1.408 -27.712  1.00 12.30     0.305 A 
HETATM    4  N10   D T   1      30.236  -1.911 -27.045  1.00  9.49    -0.101 NA
HETATM    5  N11   D T   1      29.784  -2.874 -26.233  1.00  9.08    -0.126 NA
HETATM    6  O27   D T   1      29.171  -0.433 -28.607  1.00 11.66    -0.147 OA
ENDROOT
BRANCH   1   7
HETATM    7  C4    D T   1      27.501  -3.882 -25.769  1.00 10.31     0.061 A 
HETATM    8  C5    D T   1      26.892  -3.661 -24.529  1.00 10.61     0.136 A 
HETATM    9  C6    D T   1      26.064  -4.631 -23.937  1.00 10.34     0.054 A 
HETATM   10  O26   D T   1      27.128  -2.492 -23.920  1.00 10.14    -0.190 OA
HETATM   11  C1    D T   1      25.798  -5.864 -24.563  1.00  9.23     0.129 A 
HETATM   12  C2    D T   1      26.415  -6.078 -25.801  1.00  9.69     0.003 A 
HETATM   13  O25   D T   1      25.017  -6.765 -23.969  1.00  9.75    -0.190 OA
HETATM   14  C3    D T   1      27.234  -5.115 -26.375  1.00 10.15     0.003 A 
BRANCH  12  15
HETATM   15  C22   D T   1      26.165  -7.369 -26.570  1.00  9.53     0.024 C 
HETATM   16  C24   D T   1      25.794  -8.626 -25.745  1.00 10.85     0.005 C 
HETATM   17  C23   D T   1      27.437  -7.633 -27.408  1.00  9.87     0.005 C 
ENDBRANCH  12  15
ENDBRANCH   1   7
BRANCH   2  18
HETATM   18  C12   D T   1      26.769  -1.829 -27.807  1.00 13.09     0.069 A 
HETATM   19  C13   D T   1      26.261  -0.525 -27.942  1.00 12.86     0.019 A 
HETATM   20  C15   D T   1      24.980  -0.231 -28.429  1.00 13.97     0.019 A 
HETATM   21  C16   D T   1      24.175  -1.326 -28.818  1.00 13.12     0.060 A 
HETATM   22  C17   D T   1      24.675  -2.633 -28.705  1.00 12.73     0.019 A 
HETATM   23  N19   D T   1      22.912  -1.377 -29.324  1.00 12.86    -0.324 N 
HETATM   24  C14   D T   1      25.957  -2.902 -28.208  1.00 13.51     0.019 A 
HETATM   25  C18   D T   1      23.650  -3.471 -29.153  1.00 14.21     0.020 A 
HETATM   26  C20   D T   1      22.578  -2.672 -29.536  1.00 12.85     0.076 A 
HETATM   27  C21   D T   1      22.029  -0.242 -29.601  1.00 13.42     0.131 C 
ENDBRANCH   2  18
TORSDOF 3
ENDMDL
MODEL 9
REMARK VINA RESULT:    -6.392      2.509      6.159
REMARK INTER + INTRA:          -7.643
REMARK INTER:                  -7.352
REMARK INTRA:                  -0.291
REMARK UNBOUND:                -0.130
REMARK  3 active torsions:
REMARK  status: ('A' for Active; 'I' for Inactive)
REMARK    1  A    between atoms: C4_1  and  C7_4 
REMARK    2  A    between atoms: C22_10  and  C2_13 
REMARK    3  A    between atoms: N8_15  and  C12_19 
ROOT
HETATM    1  C7    D T   1      27.125  -3.023 -25.118  1.00 10.24     0.174 A 
HETATM    2  N8    D T   1      26.301  -3.895 -25.760  1.00 12.35    -0.253 N 
HETATM    3  C9    D T   1      26.056  -4.855 -24.844  1.00 12.30     0.305 A 
HETATM    4  N10   D T   1      26.663  -4.562 -23.675  1.00  9.49    -0.101 NA
HETATM    5  N11   D T   1      27.322  -3.409 -23.838  1.00  9.08    -0.126 NA
HETATM    6  O27   D T   1      25.310  -5.910 -25.129  1.00 11.66    -0.147 OA
ENDROOT
BRANCH   1   7
HETATM    7  C4    D T   1      27.601  -1.776 -25.762  1.00 10.31     0.061 A 
HETATM    8  C5    D T   1      26.894  -0.569 -25.732  1.00 10.61     0.136 A 
HETATM    9  C6    D T   1      27.352   0.565 -26.426  1.00 10.34     0.054 A 
HETATM   10  O26   D T   1      25.761  -0.531 -25.020  1.00 10.14    -0.190 OA
HETATM   11  C1    D T   1      28.545   0.547 -27.174  1.00  9.23     0.129 A 
HETATM   12  C2    D T   1      29.243  -0.665 -27.202  1.00  9.69     0.003 A 
HETATM   13  O25   D T   1      28.944   1.637 -27.828  1.00  9.75    -0.190 OA
HETATM   14  C3    D T   1      28.779  -1.781 -26.516  1.00 10.15     0.003 A 
BRANCH  12  15
HETATM   15  C22   D T   1      30.559  -0.776 -27.960  1.00  9.53     0.024 C 
HETATM   16  C24   D T   1      30.959  -2.177 -28.487  1.00 10.85     0.005 C 
HETATM   17  C23   D T   1      31.655  -0.223 -27.020  1.00  9.87     0.005 C 
ENDBRANCH  12  15
ENDBRANCH   1   7
BRANCH   2  18
HETATM   18  C12   D T   1      25.863  -3.828 -27.056  1.00 13.09     0.069 A 
HETATM   19  C13   D T   1      25.890  -4.960 -27.890  1.00 12.86     0.019 A 
HETATM   20  C15   D T   1      25.427  -4.969 -29.213  1.00 13.97     0.019 A 
HETATM   21  C16   D T   1      24.890  -3.761 -29.712  1.00 13.12     0.060 A 
HETATM   22  C17   D T   1      24.842  -2.626 -28.887  1.00 12.73     0.019 A 
HETATM   23  N19   D T   1      24.366  -3.447 -30.929  1.00 12.86    -0.324 N 
HETATM   24  C14   D T   1      25.317  -2.639 -27.569  1.00 13.51     0.019 A 
HETATM   25  C18   D T   1      24.277  -1.614 -29.667  1.00 14.21     0.020 A 
HETATM   26  C20   D T   1      23.985  -2.147 -30.918  1.00 12.85     0.076 A 
HETATM   27  C21   D T   1      24.224  -4.337 -32.082  1.00 13.42     0.131 C 
ENDBRANCH   2  18
TORSDOF 3
ENDMDL
