MODEL 1
REMARK VINA RESULT:    -7.963      0.000      0.000
REMARK INTER + INTRA:         -13.000
REMARK INTER:                 -12.153
REMARK INTRA:                  -0.847
REMARK UNBOUND:                -0.847
REMARK  9 active torsions:
REMARK  status: ('A' for Active; 'I' for Inactive)
REMARK    1  A    between atoms: O02_2  and  CAX_24 
REMARK    2  A    between atoms: CAC_3  and  CAM_13 
REMARK    3  A    between atoms: CAC_3  and  NBH_34 
REMARK    4  A    between atoms: CAM_13  and  CAN_14 
REMARK    5  A    between atoms: CAN_14  and  OAW_23 
REMARK    6  A    between atoms: NAU_21  and  CBB_28 
REMARK    7  A    between atoms: NAU_21  and  CBE_31 
REMARK    8  A    between atoms: OAV_22  and  CBC_29 
REMARK    9  A    between atoms: OAW_23  and  CBD_30 
ROOT
HETATM    1  NAD   D T 601       8.556  -0.106  -6.492  1.00 32.70    -0.191 NA
HETATM    2  CAG   D T 601       9.051   0.204  -5.525  1.00 31.24     0.100 C 
HETATM    3  CAH   D T 601      11.014  -0.004  -3.873  1.00 28.83     0.163 A 
HETATM    4  CAK   D T 601      11.898   1.688  -0.496  1.00 26.08     0.098 A 
HETATM    5  CAL   D T 601       9.247   3.010  -1.118  1.00 26.85     0.082 A 
HETATM    6  NAT   D T 601      11.701   0.349  -2.666  1.00 34.24    -0.269 NA
HETATM    7  CBA   D T 601       9.700   0.610  -4.242  1.00 30.42     0.088 A 
HETATM    8  CBC   D T 601      10.000   3.361   0.125  1.00 23.70     0.095 A 
HETATM    9  CBD   D T 601      11.302   2.696   0.427  1.00 25.38     0.096 A 
HETATM   10  CBE   D T 601       9.073   1.650  -3.331  1.00 37.17     0.086 A 
HETATM   11  CBF   D T 601      11.155   1.321  -1.760  1.00 28.08     0.059 A 
HETATM   12  CBG   D T 601       9.832   1.997  -2.055  1.00 29.83     0.016 A 
ENDROOT
BRANCH  10  13
HETATM   13  NAU   D T 601       7.787   2.315  -3.587  1.00 42.81    -0.249 NA
BRANCH  13  14
HETATM   14  CBB   D T 601       7.614   3.036  -4.831  1.00 45.16     0.072 A 
HETATM   15  CAJ   D T 601       6.630   2.527  -5.848  1.00 44.00     0.098 A 
HETATM   16  CAX   D T 601       6.465   3.254  -7.144  1.00 48.51     0.085 A 
HETATM   17  CAY   D T 601       7.280   4.488  -7.413  1.00 53.02     0.059 A 
HETATM   18 CL1    D T 601       7.091   5.331  -8.909  1.00 53.68    -0.085 Cl
HETATM   19  CAI   D T 601       8.255   4.991  -6.402  1.00 46.30     0.079 A 
HETATM   20  CAZ   D T 601       8.431   4.269  -5.107  1.00 49.16     0.055 A 
HETATM   21 CL2    D T 601       9.565   4.844  -3.926  1.00 67.83    -0.085 Cl
BRANCH  16  22
HETATM   22  O02   D T 601       5.560   2.796  -8.075  1.00 43.57    -0.331 OA
HETATM   23  C01   D T 601       5.805   1.614  -8.763  1.00 43.07     0.181 C 
ENDBRANCH  16  22
ENDBRANCH  13  14
ENDBRANCH  10  13
BRANCH   8  24
HETATM   24  OAV   D T 601       9.435   4.302   0.956  1.00 30.98    -0.330 OA
HETATM   25  CAA   D T 601       9.748   5.652   0.805  1.00 22.69     0.181 C 
ENDBRANCH   8  24
BRANCH   9  26
HETATM   26  OAW   D T 601      12.030   2.986   1.573  1.00 39.27    -0.333 OA
BRANCH  26  27
HETATM   27  CAN   D T 601      11.568   2.543   2.816  1.00 36.89     0.150 C 
BRANCH  27  28
HETATM   28  CAM   D T 601      12.044   1.101   2.987  1.00 37.41     0.056 C 
BRANCH  28  29
HETATM   29  CAC   D T 601      10.833   0.206   3.204  1.00 48.04     0.100 C 
BRANCH  29  30
HETATM   30  NBH   D T 601      11.126  -1.140   2.615  1.00 56.69    -0.365 N 
HETATM   31  CAP   D T 601      12.468  -1.601   2.264  1.00 58.94     0.121 C 
HETATM   32  CAR   D T 601      12.458  -3.140   2.236  1.00 60.67     0.121 C 
HETATM   33  NBI   D T 601      11.425  -3.591   1.341  1.00 64.46    -0.364 N 
HETATM   34  CAO   D T 601      11.822  -4.036   0.013  1.00 72.62     0.121 C 
HETATM   35  CAS   D T 601      10.117  -3.091   1.639  1.00 59.00     0.121 C 
HETATM   36  CAQ   D T 601      10.158  -1.598   1.649  1.00 59.44     0.121 C 
ENDBRANCH  29  30
ENDBRANCH  28  29
ENDBRANCH  27  28
ENDBRANCH  26  27
ENDBRANCH   9  26
TORSDOF 9
ENDMDL
MODEL 2
REMARK VINA RESULT:    -7.497     18.946     20.823
REMARK INTER + INTRA:         -12.288
REMARK INTER:                 -10.631
REMARK INTRA:                  -1.657
REMARK UNBOUND:                -0.847
REMARK  9 active torsions:
REMARK  status: ('A' for Active; 'I' for Inactive)
REMARK    1  A    between atoms: O02_2  and  CAX_24 
REMARK    2  A    between atoms: CAC_3  and  CAM_13 
REMARK    3  A    between atoms: CAC_3  and  NBH_34 
REMARK    4  A    between atoms: CAM_13  and  CAN_14 
REMARK    5  A    between atoms: CAN_14  and  OAW_23 
REMARK    6  A    between atoms: NAU_21  and  CBB_28 
REMARK    7  A    between atoms: NAU_21  and  CBE_31 
REMARK    8  A    between atoms: OAV_22  and  CBC_29 
REMARK    9  A    between atoms: OAW_23  and  CBD_30 
ROOT
HETATM    1  NAD   D T 601      -3.045   4.392 -15.609  1.00 32.70    -0.191 NA
HETATM    2  CAG   D T 601      -3.763   3.542 -15.414  1.00 31.24     0.100 C 
HETATM    3  CAH   D T 601      -5.959   2.686 -14.380  1.00 28.83     0.163 A 
HETATM    4  CAK   D T 601      -7.740  -0.759 -14.279  1.00 26.08     0.098 A 
HETATM    5  CAL   D T 601      -5.249  -1.451 -15.854  1.00 26.85     0.082 A 
HETATM    6  NAT   D T 601      -6.916   1.656 -14.104  1.00 34.24    -0.269 NA
HETATM    7  CBA   D T 601      -4.707   2.414 -15.152  1.00 30.42     0.088 A 
HETATM    8  CBC   D T 601      -6.278  -2.496 -15.558  1.00 23.70     0.095 A 
HETATM    9  CBD   D T 601      -7.497  -2.146 -14.772  1.00 25.38     0.096 A 
HETATM   10  CBE   D T 601      -4.437   1.016 -15.681  1.00 37.17     0.086 A 
HETATM   11  CBF   D T 601      -6.714   0.312 -14.571  1.00 28.08     0.059 A 
HETATM   12  CBG   D T 601      -5.477  -0.053 -15.365  1.00 29.83     0.016 A 
ENDROOT
BRANCH  10  13
HETATM   13  NAU   D T 601      -3.242   0.630 -16.445  1.00 42.81    -0.249 NA
BRANCH  13  14
HETATM   14  CBB   D T 601      -3.084   1.139 -17.791  1.00 45.16     0.072 A 
HETATM   15  CAJ   D T 601      -4.161   0.883 -18.808  1.00 44.00     0.098 A 
HETATM   16  CAX   D T 601      -3.992   1.386 -20.206  1.00 48.51     0.085 A 
HETATM   17  CAY   D T 601      -2.750   2.147 -20.577  1.00 53.02     0.059 A 
HETATM   18 CL1    D T 601      -2.552   2.730 -22.191  1.00 53.68    -0.085 Cl
HETATM   19  CAI   D T 601      -1.683   2.400 -19.566  1.00 46.30     0.079 A 
HETATM   20  CAZ   D T 601      -1.840   1.898 -18.169  1.00 49.16     0.055 A 
HETATM   21 CL2    D T 601      -0.603   2.183 -16.985  1.00 67.83    -0.085 Cl
BRANCH  16  22
HETATM   22  O02   D T 601      -4.979   1.160 -21.139  1.00 43.57    -0.331 OA
HETATM   23  C01   D T 601      -5.532  -0.108 -21.276  1.00 43.07     0.181 C 
ENDBRANCH  16  22
ENDBRANCH  13  14
ENDBRANCH  10  13
BRANCH   8  24
HETATM   24  OAV   D T 601      -6.038  -3.766 -16.032  1.00 30.98    -0.330 OA
HETATM   25  CAA   D T 601      -5.324  -4.681 -15.261  1.00 22.69     0.181 C 
ENDBRANCH   8  24
BRANCH   9  26
HETATM   26  OAW   D T 601      -8.473  -3.085 -14.467  1.00 39.27    -0.333 OA
BRANCH  26  27
HETATM   27  CAN   D T 601      -9.506  -2.747 -13.588  1.00 36.89     0.150 C 
BRANCH  27  28
HETATM   28  CAM   D T 601      -9.457  -3.740 -12.428  1.00 37.41     0.056 C 
BRANCH  28  29
HETATM   29  CAC   D T 601      -8.320  -3.350 -11.495  1.00 48.04     0.100 C 
BRANCH  29  30
HETATM   30  NBH   D T 601      -7.259  -4.404 -11.573  1.00 56.69    -0.365 N 
HETATM   31  CAP   D T 601      -7.522  -5.837 -11.446  1.00 58.94     0.121 C 
HETATM   32  CAR   D T 601      -6.368  -6.601 -12.118  1.00 60.67     0.121 C 
HETATM   33  NBI   D T 601      -5.120  -6.178 -11.540  1.00 64.46    -0.364 N 
HETATM   34  CAO   D T 601      -4.498  -7.045 -10.551  1.00 72.62     0.121 C 
HETATM   35  CAS   D T 601      -4.883  -4.767 -11.601  1.00 59.00     0.121 C 
HETATM   36  CAQ   D T 601      -6.014  -4.055 -10.935  1.00 59.44     0.121 C 
ENDBRANCH  29  30
ENDBRANCH  28  29
ENDBRANCH  27  28
ENDBRANCH  26  27
ENDBRANCH   9  26
TORSDOF 9
ENDMDL
MODEL 3
REMARK VINA RESULT:    -7.288      9.972     12.635
REMARK INTER + INTRA:         -11.969
REMARK INTER:                 -10.749
REMARK INTRA:                  -1.221
REMARK UNBOUND:                -0.847
REMARK  9 active torsions:
REMARK  status: ('A' for Active; 'I' for Inactive)
REMARK    1  A    between atoms: O02_2  and  CAX_24 
REMARK    2  A    between atoms: CAC_3  and  CAM_13 
REMARK    3  A    between atoms: CAC_3  and  NBH_34 
REMARK    4  A    between atoms: CAM_13  and  CAN_14 
REMARK    5  A    between atoms: CAN_14  and  OAW_23 
REMARK    6  A    between atoms: NAU_21  and  CBB_28 
REMARK    7  A    between atoms: NAU_21  and  CBE_31 
REMARK    8  A    between atoms: OAV_22  and  CBC_29 
REMARK    9  A    between atoms: OAW_23  and  CBD_30 
ROOT
HETATM    1  NAD   D T 601       7.787  18.181   2.119  1.00 32.70    -0.191 NA
HETATM    2  CAG   D T 601       7.977  17.174   1.642  1.00 31.24     0.100 C 
HETATM    3  CAH   D T 601       9.469  15.095   1.370  1.00 28.83     0.163 A 
HETATM    4  CAK   D T 601       9.199  11.823  -0.698  1.00 26.08     0.098 A 
HETATM    5  CAL   D T 601       6.649  13.231  -1.524  1.00 26.85     0.082 A 
HETATM    6  NAT   D T 601       9.767  13.810   0.809  1.00 34.24    -0.269 NA
HETATM    7  CBA   D T 601       8.228  15.846   1.005  1.00 30.42     0.088 A 
HETATM    8  CBC   D T 601       6.989  11.883  -2.076  1.00 23.70     0.095 A 
HETATM    9  CBD   D T 601       8.253  11.203  -1.670  1.00 25.38     0.096 A 
HETATM   10  CBE   D T 601       7.237  15.236   0.030  1.00 37.17     0.086 A 
HETATM   11  CBF   D T 601       8.873  13.183  -0.124  1.00 28.08     0.059 A 
HETATM   12  CBG   D T 601       7.590  13.869  -0.547  1.00 29.83     0.016 A 
ENDROOT
BRANCH  10  13
HETATM   13  NAU   D T 601       5.990  15.881  -0.406  1.00 42.81    -0.249 NA
BRANCH  13  14
HETATM   14  CBB   D T 601       6.058  16.895  -1.438  1.00 45.16     0.072 A 
HETATM   15  CAJ   D T 601       7.061  16.753  -2.548  1.00 44.00     0.098 A 
HETATM   16  CAX   D T 601       7.151  17.809  -3.602  1.00 48.51     0.085 A 
HETATM   17  CAY   D T 601       6.234  18.998  -3.543  1.00 53.02     0.059 A 
HETATM   18 CL1    D T 601       6.334  20.220  -4.761  1.00 53.68    -0.085 Cl
HETATM   19  CAI   D T 601       5.238  19.136  -2.441  1.00 46.30     0.079 A 
HETATM   20  CAZ   D T 601       5.144  18.089  -1.381  1.00 49.16     0.055 A 
HETATM   21 CL2    D T 601       3.992  18.243  -0.092  1.00 67.83    -0.085 Cl
BRANCH  16  22
HETATM   22  O02   D T 601       8.064  17.679  -4.624  1.00 43.57    -0.331 OA
HETATM   23  C01   D T 601       9.307  18.294  -4.533  1.00 43.07     0.181 C 
ENDBRANCH  16  22
ENDBRANCH  13  14
ENDBRANCH  10  13
BRANCH   8  24
HETATM   24  OAV   D T 601       6.096  11.325  -2.963  1.00 30.98    -0.330 OA
HETATM   25  CAA   D T 601       6.273  11.489  -4.336  1.00 22.69     0.181 C 
ENDBRANCH   8  24
BRANCH   9  26
HETATM   26  OAW   D T 601       8.612   9.955  -2.164  1.00 39.27    -0.333 OA
BRANCH  26  27
HETATM   27  CAN   D T 601       9.667   9.255  -1.572  1.00 36.89     0.150 C 
BRANCH  27  28
HETATM   28  CAM   D T 601       9.054   8.125  -0.746  1.00 37.41     0.056 C 
BRANCH  28  29
HETATM   29  CAC   D T 601      10.171   7.226  -0.237  1.00 48.04     0.100 C 
BRANCH  29  30
HETATM   30  NBH   D T 601      10.094   5.917  -0.961  1.00 56.69    -0.365 N 
HETATM   31  CAP   D T 601       8.913   5.456  -1.690  1.00 58.94     0.121 C 
HETATM   32  CAR   D T 601       9.362   4.413  -2.727  1.00 60.67     0.121 C 
HETATM   33  NBI   D T 601      10.091   3.365  -2.061  1.00 64.46    -0.364 N 
HETATM   34  CAO   D T 601       9.395   2.115  -1.795  1.00 72.62     0.121 C 
HETATM   35  CAS   D T 601      11.211   3.815  -1.292  1.00 59.00     0.121 C 
HETATM   36  CAQ   D T 601      10.742   4.818  -0.290  1.00 59.44     0.121 C 
ENDBRANCH  29  30
ENDBRANCH  28  29
ENDBRANCH  27  28
ENDBRANCH  26  27
ENDBRANCH   9  26
TORSDOF 9
ENDMDL
MODEL 4
REMARK VINA RESULT:    -7.093     10.526     13.510
REMARK INTER + INTRA:         -11.672
REMARK INTER:                 -10.047
REMARK INTRA:                  -1.625
REMARK UNBOUND:                -0.847
REMARK  9 active torsions:
REMARK  status: ('A' for Active; 'I' for Inactive)
REMARK    1  A    between atoms: O02_2  and  CAX_24 
REMARK    2  A    between atoms: CAC_3  and  CAM_13 
REMARK    3  A    between atoms: CAC_3  and  NBH_34 
REMARK    4  A    between atoms: CAM_13  and  CAN_14 
REMARK    5  A    between atoms: CAN_14  and  OAW_23 
REMARK    6  A    between atoms: NAU_21  and  CBB_28 
REMARK    7  A    between atoms: NAU_21  and  CBE_31 
REMARK    8  A    between atoms: OAV_22  and  CBC_29 
REMARK    9  A    between atoms: OAW_23  and  CBD_30 
ROOT
HETATM    1  NAD   D T 601       7.250  18.343   2.126  1.00 32.70    -0.191 NA
HETATM    2  CAG   D T 601       7.500  17.329   1.693  1.00 31.24     0.100 C 
HETATM    3  CAH   D T 601       9.047  15.274   1.609  1.00 28.83     0.163 A 
HETATM    4  CAK   D T 601       9.025  11.952  -0.395  1.00 26.08     0.098 A 
HETATM    5  CAL   D T 601       6.538  13.291  -1.484  1.00 26.85     0.082 A 
HETATM    6  NAT   D T 601       9.417  13.983   1.109  1.00 34.24    -0.269 NA
HETATM    7  CBA   D T 601       7.831  15.993   1.114  1.00 30.42     0.088 A 
HETATM    8  CBC   D T 601       6.950  11.938  -1.970  1.00 23.70     0.095 A 
HETATM    9  CBD   D T 601       8.183  11.292  -1.434  1.00 25.38     0.096 A 
HETATM   10  CBE   D T 601       6.945  15.341   0.067  1.00 37.17     0.086 A 
HETATM   11  CBF   D T 601       8.624  13.318   0.114  1.00 28.08     0.059 A 
HETATM   12  CBG   D T 601       7.373  13.969  -0.441  1.00 29.83     0.016 A 
ENDROOT
BRANCH  10  13
HETATM   13  NAU   D T 601       5.733  15.952  -0.496  1.00 42.81    -0.249 NA
BRANCH  13  14
HETATM   14  CBB   D T 601       5.875  17.098  -1.371  1.00 45.16     0.072 A 
HETATM   15  CAJ   D T 601       6.826  17.025  -2.533  1.00 44.00     0.098 A 
HETATM   16  CAX   D T 601       6.995  18.213  -3.424  1.00 48.51     0.085 A 
HETATM   17  CAY   D T 601       6.208  19.464  -3.152  1.00 53.02     0.059 A 
HETATM   18 CL1    D T 601       6.400  20.839  -4.181  1.00 53.68    -0.085 Cl
HETATM   19  CAI   D T 601       5.264  19.534  -1.999  1.00 46.30     0.079 A 
HETATM   20  CAZ   D T 601       5.093  18.354  -1.100  1.00 49.16     0.055 A 
HETATM   21 CL2    D T 601       4.001  18.426   0.248  1.00 67.83    -0.085 Cl
BRANCH  16  22
HETATM   22  O02   D T 601       7.859  18.149  -4.494  1.00 43.57    -0.331 OA
HETATM   23  C01   D T 601       7.411  17.693  -5.728  1.00 43.07     0.181 C 
ENDBRANCH  16  22
ENDBRANCH  13  14
ENDBRANCH  10  13
BRANCH   8  24
HETATM   24  OAV   D T 601       6.152  11.343  -2.922  1.00 30.98    -0.330 OA
HETATM   25  CAA   D T 601       6.283  11.689  -4.265  1.00 22.69     0.181 C 
ENDBRANCH   8  24
BRANCH   9  26
HETATM   26  OAW   D T 601       8.607  10.041  -1.863  1.00 39.27    -0.333 OA
BRANCH  26  27
HETATM   27  CAN   D T 601       9.829   9.534  -1.412  1.00 36.89     0.150 C 
BRANCH  27  28
HETATM   28  CAM   D T 601       9.519   8.466  -0.364  1.00 37.41     0.056 C 
BRANCH  28  29
HETATM   29  CAC   D T 601      10.759   8.237   0.487  1.00 48.04     0.100 C 
BRANCH  29  30
HETATM   30  NBH   D T 601      10.578   8.950   1.792  1.00 56.69    -0.365 N 
HETATM   31  CAP   D T 601      11.190  10.240   2.107  1.00 58.94     0.121 C 
HETATM   32  CAR   D T 601      10.371  10.903   3.228  1.00 60.67     0.121 C 
HETATM   33  NBI   D T 601      10.283  10.002   4.346  1.00 64.46    -0.364 N 
HETATM   34  CAO   D T 601      11.158  10.242   5.484  1.00 72.62     0.121 C 
HETATM   35  CAS   D T 601       9.744   8.713   4.033  1.00 59.00     0.121 C 
HETATM   36  CAQ   D T 601      10.566   8.093   2.950  1.00 59.44     0.121 C 
ENDBRANCH  29  30
ENDBRANCH  28  29
ENDBRANCH  27  28
ENDBRANCH  26  27
ENDBRANCH   9  26
TORSDOF 9
ENDMDL
MODEL 5
REMARK VINA RESULT:    -7.087      4.183      8.830
REMARK INTER + INTRA:         -11.663
REMARK INTER:                 -10.439
REMARK INTRA:                  -1.224
REMARK UNBOUND:                -0.847
REMARK  9 active torsions:
REMARK  status: ('A' for Active; 'I' for Inactive)
REMARK    1  A    between atoms: O02_2  and  CAX_24 
REMARK    2  A    between atoms: CAC_3  and  CAM_13 
REMARK    3  A    between atoms: CAC_3  and  NBH_34 
REMARK    4  A    between atoms: CAM_13  and  CAN_14 
REMARK    5  A    between atoms: CAN_14  and  OAW_23 
REMARK    6  A    between atoms: NAU_21  and  CBB_28 
REMARK    7  A    between atoms: NAU_21  and  CBE_31 
REMARK    8  A    between atoms: OAV_22  and  CBC_29 
REMARK    9  A    between atoms: OAW_23  and  CBD_30 
ROOT
HETATM    1  NAD   D T 601       9.369   7.755   2.638  1.00 32.70    -0.191 NA
HETATM    2  CAG   D T 601       9.534   6.955   1.858  1.00 31.24     0.100 C 
HETATM    3  CAH   D T 601      10.019   4.497   1.269  1.00 28.83     0.163 A 
HETATM    4  CAK   D T 601      10.401   2.537  -2.057  1.00 26.08     0.098 A 
HETATM    5  CAL   D T 601       9.885   5.332  -3.100  1.00 26.85     0.082 A 
HETATM    6  NAT   D T 601      10.229   3.433   0.332  1.00 34.24    -0.269 NA
HETATM    7  CBA   D T 601       9.759   5.901   0.823  1.00 30.42     0.088 A 
HETATM    8  CBC   D T 601      10.095   4.192  -4.046  1.00 23.70     0.095 A 
HETATM    9  CBD   D T 601      10.359   2.821  -3.521  1.00 25.38     0.096 A 
HETATM   10  CBE   D T 601       9.695   6.221  -0.661  1.00 37.17     0.086 A 
HETATM   11  CBF   D T 601      10.187   3.673  -1.084  1.00 28.08     0.059 A 
HETATM   12  CBG   D T 601       9.926   5.064  -1.626  1.00 29.83     0.016 A 
ENDROOT
BRANCH  10  13
HETATM   13  NAU   D T 601       9.453   7.560  -1.215  1.00 42.81    -0.249 NA
BRANCH  13  14
HETATM   14  CBB   D T 601      10.514   8.544  -1.142  1.00 45.16     0.072 A 
HETATM   15  CAJ   D T 601      11.933   8.086  -0.955  1.00 44.00     0.098 A 
HETATM   16  CAX   D T 601      13.029   9.097  -0.855  1.00 48.51     0.085 A 
HETATM   17  CAY   D T 601      12.700  10.561  -0.948  1.00 53.02     0.059 A 
HETATM   18 CL1    D T 601      13.964  11.733  -0.834  1.00 53.68    -0.085 Cl
HETATM   19  CAI   D T 601      11.290  11.013  -1.134  1.00 46.30     0.079 A 
HETATM   20  CAZ   D T 601      10.188  10.010  -1.230  1.00 49.16     0.055 A 
HETATM   21 CL2    D T 601       8.545  10.526  -1.442  1.00 67.83    -0.085 Cl
BRANCH  16  22
HETATM   22  O02   D T 601      14.331   8.682  -0.692  1.00 43.57    -0.331 OA
HETATM   23  C01   D T 601      14.829   8.433   0.581  1.00 43.07     0.181 C 
ENDBRANCH  16  22
ENDBRANCH  13  14
ENDBRANCH  10  13
BRANCH   8  24
HETATM   24  OAV   D T 601      10.040   4.476  -5.392  1.00 30.98    -0.330 OA
HETATM   25  CAA   D T 601       8.840   4.874  -5.979  1.00 22.69     0.181 C 
ENDBRANCH   8  24
BRANCH   9  26
HETATM   26  OAW   D T 601      10.567   1.736  -4.363  1.00 39.27    -0.333 OA
BRANCH  26  27
HETATM   27  CAN   D T 601      10.016   0.493  -4.038  1.00 36.89     0.150 C 
BRANCH  27  28
HETATM   28  CAM   D T 601       9.130   0.070  -5.208  1.00 37.41     0.056 C 
BRANCH  28  29
HETATM   29  CAC   D T 601       7.676   0.327  -4.842  1.00 48.04     0.100 C 
BRANCH  29  30
HETATM   30  NBH   D T 601       7.035   1.099  -5.954  1.00 56.69    -0.365 N 
HETATM   31  CAP   D T 601       7.381   0.936  -7.365  1.00 58.94     0.121 C 
HETATM   32  CAR   D T 601       6.196   1.428  -8.214  1.00 60.67     0.121 C 
HETATM   33  NBI   D T 601       5.873   2.778  -7.838  1.00 64.46    -0.364 N 
HETATM   34  CAO   D T 601       6.333   3.855  -8.703  1.00 72.62     0.121 C 
HETATM   35  CAS   D T 601       5.595   2.960  -6.445  1.00 59.00     0.121 C 
HETATM   36  CAQ   D T 601       6.767   2.482  -5.650  1.00 59.44     0.121 C 
ENDBRANCH  29  30
ENDBRANCH  28  29
ENDBRANCH  27  28
ENDBRANCH  26  27
ENDBRANCH   9  26
TORSDOF 9
ENDMDL
MODEL 6
REMARK VINA RESULT:    -7.076      8.947     13.701
REMARK INTER + INTRA:         -11.646
REMARK INTER:                 -10.567
REMARK INTRA:                  -1.079
REMARK UNBOUND:                -0.847
REMARK  9 active torsions:
REMARK  status: ('A' for Active; 'I' for Inactive)
REMARK    1  A    between atoms: O02_2  and  CAX_24 
REMARK    2  A    between atoms: CAC_3  and  CAM_13 
REMARK    3  A    between atoms: CAC_3  and  NBH_34 
REMARK    4  A    between atoms: CAM_13  and  CAN_14 
REMARK    5  A    between atoms: CAN_14  and  OAW_23 
REMARK    6  A    between atoms: NAU_21  and  CBB_28 
REMARK    7  A    between atoms: NAU_21  and  CBE_31 
REMARK    8  A    between atoms: OAV_22  and  CBC_29 
REMARK    9  A    between atoms: OAW_23  and  CBD_30 
ROOT
HETATM    1  NAD   D T 601      13.908   8.645   0.787  1.00 32.70    -0.191 NA
HETATM    2  CAG   D T 601      13.021   9.314   0.583  1.00 31.24     0.100 C 
HETATM    3  CAH   D T 601      11.679  11.443   1.122  1.00 28.83     0.163 A 
HETATM    4  CAK   D T 601       8.451  13.043  -0.317  1.00 26.08     0.098 A 
HETATM    5  CAL   D T 601       8.661  10.551  -2.024  1.00 26.85     0.082 A 
HETATM    6  NAT   D T 601      10.583  12.341   0.909  1.00 34.24    -0.269 NA
HETATM    7  CBA   D T 601      11.844  10.194   0.315  1.00 30.42     0.088 A 
HETATM    8  CBC   D T 601       7.539  11.520  -2.224  1.00 23.70     0.095 A 
HETATM    9  CBD   D T 601       7.440  12.740  -1.370  1.00 25.38     0.096 A 
HETATM   10  CBE   D T 601      10.839   9.863  -0.775  1.00 37.17     0.086 A 
HETATM   11  CBF   D T 601       9.596  12.080  -0.101  1.00 28.08     0.059 A 
HETATM   12  CBG   D T 601       9.686  10.841  -0.968  1.00 29.83     0.016 A 
ENDROOT
BRANCH  10  13
HETATM   13  NAU   D T 601      10.895   8.665  -1.624  1.00 42.81    -0.249 NA
BRANCH  13  14
HETATM   14  CBB   D T 601      10.319   7.433  -1.125  1.00 45.16     0.072 A 
HETATM   15  CAJ   D T 601      10.085   7.273   0.351  1.00 44.00     0.098 A 
HETATM   16  CAX   D T 601       9.514   5.994   0.873  1.00 48.51     0.085 A 
HETATM   17  CAY   D T 601       9.174   4.886  -0.084  1.00 53.02     0.059 A 
HETATM   18 CL1    D T 601       8.513   3.407   0.516  1.00 53.68    -0.085 Cl
HETATM   19  CAI   D T 601       9.407   5.048  -1.548  1.00 46.30     0.079 A 
HETATM   20  CAZ   D T 601       9.982   6.319  -2.079  1.00 49.16     0.055 A 
HETATM   21 CL2    D T 601      10.261   6.516  -3.781  1.00 67.83    -0.085 Cl
BRANCH  16  22
HETATM   22  O02   D T 601       9.291   5.845   2.223  1.00 43.57    -0.331 OA
HETATM   23  C01   D T 601      10.363   5.701   3.096  1.00 43.07     0.181 C 
ENDBRANCH  16  22
ENDBRANCH  13  14
ENDBRANCH  10  13
BRANCH   8  24
HETATM   24  OAV   D T 601       6.623  11.224  -3.209  1.00 30.98    -0.330 OA
HETATM   25  CAA   D T 601       7.053  10.781  -4.458  1.00 22.69     0.181 C 
ENDBRANCH   8  24
BRANCH   9  26
HETATM   26  OAW   D T 601       6.410  13.660  -1.517  1.00 39.27    -0.333 OA
BRANCH  26  27
HETATM   27  CAN   D T 601       6.170  14.594  -0.504  1.00 36.89     0.150 C 
BRANCH  27  28
HETATM   28  CAM   D T 601       6.452  15.977  -1.087  1.00 37.41     0.056 C 
BRANCH  28  29
HETATM   29  CAC   D T 601       5.308  16.910  -0.716  1.00 48.04     0.100 C 
BRANCH  29  30
HETATM   30  NBH   D T 601       5.787  17.848   0.349  1.00 56.69    -0.365 N 
HETATM   31  CAP   D T 601       4.898  18.622   1.214  1.00 58.94     0.121 C 
HETATM   32  CAR   D T 601       5.672  19.000   2.489  1.00 60.67     0.121 C 
HETATM   33  NBI   D T 601       6.883  19.686   2.122  1.00 64.46    -0.364 N 
HETATM   34  CAO   D T 601       6.905  21.137   2.240  1.00 72.62     0.121 C 
HETATM   35  CAS   D T 601       7.729  18.962   1.222  1.00 59.00     0.121 C 
HETATM   36  CAQ   D T 601       6.953  18.619  -0.006  1.00 59.44     0.121 C 
ENDBRANCH  29  30
ENDBRANCH  28  29
ENDBRANCH  27  28
ENDBRANCH  26  27
ENDBRANCH   9  26
TORSDOF 9
ENDMDL
MODEL 7
REMARK VINA RESULT:    -7.039      7.518     10.415
REMARK INTER + INTRA:         -11.590
REMARK INTER:                  -9.735
REMARK INTRA:                  -1.855
REMARK UNBOUND:                -0.847
REMARK  9 active torsions:
REMARK  status: ('A' for Active; 'I' for Inactive)
REMARK    1  A    between atoms: O02_2  and  CAX_24 
REMARK    2  A    between atoms: CAC_3  and  CAM_13 
REMARK    3  A    between atoms: CAC_3  and  NBH_34 
REMARK    4  A    between atoms: CAM_13  and  CAN_14 
REMARK    5  A    between atoms: CAN_14  and  OAW_23 
REMARK    6  A    between atoms: NAU_21  and  CBB_28 
REMARK    7  A    between atoms: NAU_21  and  CBE_31 
REMARK    8  A    between atoms: OAV_22  and  CBC_29 
REMARK    9  A    between atoms: OAW_23  and  CBD_30 
ROOT
HETATM    1  NAD   D T 601      10.365  16.851  -0.632  1.00 32.70    -0.191 NA
HETATM    2  CAG   D T 601      10.962  15.944  -0.322  1.00 31.24     0.100 C 
HETATM    3  CAH   D T 601      13.231  14.749  -0.109  1.00 28.83     0.163 A 
HETATM    4  CAK   D T 601      14.353  11.298   1.264  1.00 26.08     0.098 A 
HETATM    5  CAL   D T 601      11.362  11.143   1.707  1.00 26.85     0.082 A 
HETATM    6  NAT   D T 601      14.049  13.635   0.270  1.00 34.24    -0.269 NA
HETATM    7  CBA   D T 601      11.747  14.739   0.082  1.00 30.42     0.088 A 
HETATM    8  CBC   D T 601      12.251  10.006   2.101  1.00 23.70     0.095 A 
HETATM    9  CBD   D T 601      13.723  10.090   1.869  1.00 25.38     0.096 A 
HETATM   10  CBE   D T 601      11.076  13.530   0.709  1.00 37.17     0.086 A 
HETATM   11  CBF   D T 601      13.473  12.460   0.862  1.00 28.08     0.059 A 
HETATM   12  CBG   D T 601      11.980  12.364   1.096  1.00 29.83     0.016 A 
ENDROOT
BRANCH  10  13
HETATM   13  NAU   D T 601       9.630  13.405   0.940  1.00 42.81    -0.249 NA
BRANCH  13  14
HETATM   14  CBB   D T 601       8.790  12.952  -0.150  1.00 45.16     0.072 A 
HETATM   15  CAJ   D T 601       9.137  11.678  -0.869  1.00 44.00     0.098 A 
HETATM   16  CAX   D T 601       8.287  11.219  -2.010  1.00 48.51     0.085 A 
HETATM   17  CAY   D T 601       7.093  12.034  -2.422  1.00 53.02     0.059 A 
HETATM   18 CL1    D T 601       6.108  11.506  -3.740  1.00 53.68    -0.085 Cl
HETATM   19  CAI   D T 601       6.751  13.297  -1.707  1.00 46.30     0.079 A 
HETATM   20  CAZ   D T 601       7.596  13.767  -0.569  1.00 49.16     0.055 A 
HETATM   21 CL2    D T 601       7.210  15.238   0.267  1.00 67.83    -0.085 Cl
BRANCH  16  22
HETATM   22  O02   D T 601       8.597  10.050  -2.667  1.00 43.57    -0.331 OA
HETATM   23  C01   D T 601       9.312   9.052  -2.016  1.00 43.07     0.181 C 
ENDBRANCH  16  22
ENDBRANCH  13  14
ENDBRANCH  10  13
BRANCH   8  24
HETATM   24  OAV   D T 601      11.649   8.905   2.668  1.00 30.98    -0.330 OA
HETATM   25  CAA   D T 601      10.625   9.066   3.599  1.00 22.69     0.181 C 
ENDBRANCH   8  24
BRANCH   9  26
HETATM   26  OAW   D T 601      14.584   9.055   2.212  1.00 39.27    -0.333 OA
BRANCH  26  27
HETATM   27  CAN   D T 601      15.371   8.455   1.224  1.00 36.89     0.150 C 
BRANCH  27  28
HETATM   28  CAM   D T 601      14.421   7.779   0.238  1.00 37.41     0.056 C 
BRANCH  28  29
HETATM   29  CAC   D T 601      14.315   6.302   0.590  1.00 48.04     0.100 C 
BRANCH  29  30
HETATM   30  NBH   D T 601      12.935   5.830   0.251  1.00 56.69    -0.365 N 
HETATM   31  CAP   D T 601      12.654   4.633  -0.539  1.00 58.94     0.121 C 
HETATM   32  CAR   D T 601      11.226   4.163  -0.213  1.00 60.67     0.121 C 
HETATM   33  NBI   D T 601      10.307   5.247  -0.438  1.00 64.46    -0.364 N 
HETATM   34  CAO   D T 601       9.528   5.236  -1.667  1.00 72.62     0.121 C 
HETATM   35  CAS   D T 601      10.612   6.446   0.283  1.00 59.00     0.121 C 
HETATM   36  CAQ   D T 601      11.999   6.881  -0.062  1.00 59.44     0.121 C 
ENDBRANCH  29  30
ENDBRANCH  28  29
ENDBRANCH  27  28
ENDBRANCH  26  27
ENDBRANCH   9  26
TORSDOF 9
ENDMDL
MODEL 8
REMARK VINA RESULT:    -6.850      7.997     12.077
REMARK INTER + INTRA:         -11.302
REMARK INTER:                 -10.009
REMARK INTRA:                  -1.292
REMARK UNBOUND:                -0.847
REMARK  9 active torsions:
REMARK  status: ('A' for Active; 'I' for Inactive)
REMARK    1  A    between atoms: O02_2  and  CAX_24 
REMARK    2  A    between atoms: CAC_3  and  CAM_13 
REMARK    3  A    between atoms: CAC_3  and  NBH_34 
REMARK    4  A    between atoms: CAM_13  and  CAN_14 
REMARK    5  A    between atoms: CAN_14  and  OAW_23 
REMARK    6  A    between atoms: NAU_21  and  CBB_28 
REMARK    7  A    between atoms: NAU_21  and  CBE_31 
REMARK    8  A    between atoms: OAV_22  and  CBC_29 
REMARK    9  A    between atoms: OAW_23  and  CBD_30 
ROOT
HETATM    1  NAD   D T 601       5.752  16.113  -0.734  1.00 32.70    -0.191 NA
HETATM    2  CAG   D T 601       6.290  15.125  -0.838  1.00 31.24     0.100 C 
HETATM    3  CAH   D T 601       6.298  12.676  -1.629  1.00 28.83     0.163 A 
HETATM    4  CAK   D T 601       8.918   9.816  -1.549  1.00 26.08     0.098 A 
HETATM    5  CAL   D T 601      10.461  12.040  -0.194  1.00 26.85     0.082 A 
HETATM    6  NAT   D T 601       6.925  11.399  -1.801  1.00 34.24    -0.269 NA
HETATM    7  CBA   D T 601       7.003  13.819  -0.968  1.00 30.42     0.088 A 
HETATM    8  CBC   D T 601      11.086  10.697  -0.404  1.00 23.70     0.095 A 
HETATM    9  CBD   D T 601      10.312   9.605  -1.064  1.00 25.38     0.096 A 
HETATM   10  CBE   D T 601       8.428  13.641  -0.476  1.00 37.17     0.086 A 
HETATM   11  CBF   D T 601       8.269  11.167  -1.351  1.00 28.08     0.059 A 
HETATM   12  CBG   D T 601       9.060  12.268  -0.674  1.00 29.83     0.016 A 
ENDROOT
BRANCH  10  13
HETATM   13  NAU   D T 601       9.216  14.687   0.192  1.00 42.81    -0.249 NA
BRANCH  13  14
HETATM   14  CBB   D T 601       8.951  14.971   1.587  1.00 45.16     0.072 A 
HETATM   15  CAJ   D T 601       9.076  13.868   2.601  1.00 44.00     0.098 A 
HETATM   16  CAX   D T 601       8.780  14.150   4.039  1.00 48.51     0.085 A 
HETATM   17  CAY   D T 601       8.367  15.534   4.455  1.00 53.02     0.059 A 
HETATM   18 CL1    D T 601       8.025  15.864   6.116  1.00 53.68    -0.085 Cl
HETATM   19  CAI   D T 601       8.244  16.627   3.447  1.00 46.30     0.079 A 
HETATM   20  CAZ   D T 601       8.532  16.353   2.008  1.00 49.16     0.055 A 
HETATM   21 CL2    D T 601       8.388  17.616   0.826  1.00 67.83    -0.085 Cl
BRANCH  16  22
HETATM   22  O02   D T 601       8.900  13.145   4.972  1.00 43.57    -0.331 OA
HETATM   23  C01   D T 601      10.126  12.524   5.176  1.00 43.07     0.181 C 
ENDBRANCH  16  22
ENDBRANCH  13  14
ENDBRANCH  10  13
BRANCH   8  24
HETATM   24  OAV   D T 601      12.378  10.529   0.042  1.00 30.98    -0.330 OA
HETATM   25  CAA   D T 601      13.446  10.610  -0.849  1.00 22.69     0.181 C 
ENDBRANCH   8  24
BRANCH   9  26
HETATM   26  OAW   D T 601      10.850   8.341  -1.272  1.00 39.27    -0.333 OA
BRANCH  26  27
HETATM   27  CAN   D T 601      10.028   7.215  -1.166  1.00 36.89     0.150 C 
BRANCH  27  28
HETATM   28  CAM   D T 601      10.199   6.407  -2.451  1.00 37.41     0.056 C 
BRANCH  28  29
HETATM   29  CAC   D T 601      10.138   4.925  -2.112  1.00 48.04     0.100 C 
BRANCH  29  30
HETATM   30  NBH   D T 601       9.263   4.244  -3.119  1.00 56.69    -0.365 N 
HETATM   31  CAP   D T 601       9.267   4.556  -4.547  1.00 58.94     0.121 C 
HETATM   32  CAR   D T 601       8.709   3.341  -5.309  1.00 60.67     0.121 C 
HETATM   33  NBI   D T 601       7.413   3.006  -4.782  1.00 64.46    -0.364 N 
HETATM   34  CAO   D T 601       6.242   3.427  -5.536  1.00 72.62     0.121 C 
HETATM   35  CAS   D T 601       7.388   2.762  -3.371  1.00 59.00     0.121 C 
HETATM   36  CAQ   D T 601       7.926   3.961  -2.661  1.00 59.44     0.121 C 
ENDBRANCH  29  30
ENDBRANCH  28  29
ENDBRANCH  27  28
ENDBRANCH  26  27
ENDBRANCH   9  26
TORSDOF 9
ENDMDL
MODEL 9
REMARK VINA RESULT:    -6.630      4.951      8.134
REMARK INTER + INTRA:         -10.966
REMARK INTER:                  -9.816
REMARK INTRA:                  -1.150
REMARK UNBOUND:                -0.847
REMARK  9 active torsions:
REMARK  status: ('A' for Active; 'I' for Inactive)
REMARK    1  A    between atoms: O02_2  and  CAX_24 
REMARK    2  A    between atoms: CAC_3  and  CAM_13 
REMARK    3  A    between atoms: CAC_3  and  NBH_34 
REMARK    4  A    between atoms: CAM_13  and  CAN_14 
REMARK    5  A    between atoms: CAN_14  and  OAW_23 
REMARK    6  A    between atoms: NAU_21  and  CBB_28 
REMARK    7  A    between atoms: NAU_21  and  CBE_31 
REMARK    8  A    between atoms: OAV_22  and  CBC_29 
REMARK    9  A    between atoms: OAW_23  and  CBD_30 
ROOT
HETATM    1  NAD   D T 601      14.528  10.723   1.195  1.00 32.70    -0.191 NA
HETATM    2  CAG   D T 601      14.192   9.683   0.909  1.00 31.24     0.100 C 
HETATM    3  CAH   D T 601      14.598   7.142   0.916  1.00 28.83     0.163 A 
HETATM    4  CAK   D T 601      12.633   4.085  -0.444  1.00 26.08     0.098 A 
HETATM    5  CAL   D T 601      10.821   6.354  -1.300  1.00 26.85     0.082 A 
HETATM    6  NAT   D T 601      14.227   5.796   0.592  1.00 34.24    -0.269 NA
HETATM    7  CBA   D T 601      13.749   8.310   0.523  1.00 30.42     0.088 A 
HETATM    8  CBC   D T 601      10.462   4.935  -1.608  1.00 23.70     0.095 A 
HETATM    9  CBD   D T 601      11.368   3.825  -1.190  1.00 25.38     0.096 A 
HETATM   10  CBE   D T 601      12.448   8.078  -0.224  1.00 37.17     0.086 A 
HETATM   11  CBF   D T 601      13.012   5.512  -0.119  1.00 28.08     0.059 A 
HETATM   12  CBG   D T 601      12.090   6.633  -0.553  1.00 29.83     0.016 A 
ENDROOT
BRANCH  10  13
HETATM   13  NAU   D T 601      11.539   9.145  -0.666  1.00 42.81    -0.249 NA
BRANCH  13  14
HETATM   14  CBB   D T 601      11.022  10.070   0.322  1.00 45.16     0.072 A 
HETATM   15  CAJ   D T 601      10.319   9.535   1.538  1.00 44.00     0.098 A 
HETATM   16  CAX   D T 601       9.763  10.486   2.548  1.00 48.51     0.085 A 
HETATM   17  CAY   D T 601       9.919  11.966   2.340  1.00 53.02     0.059 A 
HETATM   18 CL1    D T 601       9.279  13.068   3.506  1.00 53.68    -0.085 Cl
HETATM   19  CAI   D T 601      10.618  12.495   1.133  1.00 46.30     0.079 A 
HETATM   20  CAZ   D T 601      11.172  11.553   0.116  1.00 49.16     0.055 A 
HETATM   21 CL2    D T 601      11.983  12.158  -1.295  1.00 67.83    -0.085 Cl
BRANCH  16  22
HETATM   22  O02   D T 601       9.124  10.000   3.667  1.00 43.57    -0.331 OA
HETATM   23  C01   D T 601       9.857   9.671   4.801  1.00 43.07     0.181 C 
ENDBRANCH  16  22
ENDBRANCH  13  14
ENDBRANCH  10  13
BRANCH   8  24
HETATM   24  OAV   D T 601       9.285   4.718  -2.287  1.00 30.98    -0.330 OA
HETATM   25  CAA   D T 601       8.067   4.746  -1.610  1.00 22.69     0.181 C 
ENDBRANCH   8  24
BRANCH   9  26
HETATM   26  OAW   D T 601      11.078   2.494  -1.461  1.00 39.27    -0.333 OA
BRANCH  26  27
HETATM   27  CAN   D T 601      10.315   1.755  -0.553  1.00 36.89     0.150 C 
BRANCH  27  28
HETATM   28  CAM   D T 601      11.222   0.668   0.021  1.00 37.41     0.056 C 
BRANCH  28  29
HETATM   29  CAC   D T 601      10.491  -0.033   1.158  1.00 48.04     0.100 C 
BRANCH  29  30
HETATM   30  NBH   D T 601      10.726  -1.507   1.036  1.00 56.69    -0.365 N 
HETATM   31  CAP   D T 601      10.407  -2.472   2.087  1.00 58.94     0.121 C 
HETATM   32  CAR   D T 601      10.244  -3.857   1.437  1.00 60.67     0.121 C 
HETATM   33  NBI   D T 601      11.431  -4.172   0.687  1.00 64.46    -0.364 N 
HETATM   34  CAO   D T 601      12.394  -5.084   1.287  1.00 72.62     0.121 C 
HETATM   35  CAS   D T 601      11.788  -3.198  -0.301  1.00 59.00     0.121 C 
HETATM   36  CAQ   D T 601      11.947  -1.869   0.362  1.00 59.44     0.121 C 
ENDBRANCH  29  30
ENDBRANCH  28  29
ENDBRANCH  27  28
ENDBRANCH  26  27
ENDBRANCH   9  26
TORSDOF 9
ENDMDL
