MODEL 1
REMARK VINA RESULT:    -8.257      0.000      0.000
REMARK INTER + INTRA:         -11.626
REMARK INTER:                 -10.670
REMARK INTRA:                  -0.956
REMARK UNBOUND:                -0.956
REMARK  5 active torsions:
REMARK  status: ('A' for Active; 'I' for Inactive)
REMARK    1  A    between atoms: C17_7  and  C21_10 
REMARK    2  A    between atoms: C21_10  and  O27_12 
REMARK    3  A    between atoms: O27_12  and  C15_13 
REMARK    4  A    between atoms: C14_19  and  C16_20 
REMARK    5  A    between atoms: N26_23  and  C20_25 
ROOT
HETATM    1  C15   D T3000      -3.578   1.472  13.503  1.00 38.99     0.125 A 
HETATM    2  C4    D T3000      -2.618   0.576  14.074  1.00 40.94     0.029 A 
HETATM    3  C19   D T3000      -4.945   1.031  13.548  1.00 37.27     0.173 A 
HETATM    4  N22   D T3000      -5.962   1.851  13.019  1.00 36.61    -0.078 NA
HETATM    5  N23   D T3000      -5.341  -0.162  14.093  1.00 37.98    -0.228 NA
HETATM    6  C5    D T3000      -4.385  -0.993  14.626  1.00 40.12     0.100 A 
HETATM    7  C14   D T3000      -2.994  -0.671  14.643  1.00 40.87     0.024 A 
ENDROOT
BRANCH   1   8
HETATM    8  O27   D T3000      -3.245   2.718  12.949  1.00 42.27    -0.326 OA
BRANCH   8   9
HETATM    9  C21   D T3000      -2.012   3.490  13.266  1.00 47.98     0.145 C 
HETATM   10  C1    D T3000      -2.448   4.961  13.441  1.00 44.93     0.038 C 
BRANCH   9  11
HETATM   11  C17   D T3000      -0.863   3.377  12.184  1.00 51.22     0.029 A 
HETATM   12  C13   D T3000      -1.082   3.875  10.832  1.00 51.61     0.057 A 
HETATM   13 CL     D T3000      -2.562   4.609  10.315  1.00 53.92    -0.083 Cl
HETATM   14  C3    D T3000      -0.052   3.775   9.847  1.00 51.64     0.013 A 
HETATM   15  C2    D T3000       1.196   3.189  10.157  1.00 51.88     0.031 A 
HETATM   16  C12   D T3000       1.450   2.687  11.461  1.00 53.21     0.150 A 
HETATM   17  F     D T3000       2.648   2.134  11.721  1.00 51.93    -0.203 F 
HETATM   18  C18   D T3000       0.440   2.774  12.481  1.00 53.17     0.084 A 
HETATM   19 CL2    D T3000       0.863   2.125  14.048  1.00 65.44    -0.080 Cl
ENDBRANCH   9  11
ENDBRANCH   8   9
ENDBRANCH   1   8
BRANCH   7  20
HETATM   20  C16   D T3000      -1.919  -1.567  15.223  1.00 44.81     0.041 A 
HETATM   21  C6    D T3000      -0.477  -1.588  14.980  1.00 45.20     0.122 A 
HETATM   22  N24   D T3000       0.044  -2.530  15.699  1.00 48.48    -0.168 NA
HETATM   23  N26   D T3000      -0.891  -3.120  16.375  1.00 52.17    -0.252 N 
HETATM   24  C7    D T3000      -2.135  -2.581  16.134  1.00 48.89     0.097 A 
BRANCH  23  25
HETATM   25  C20   D T3000      -0.694  -4.246  17.313  1.00 57.73     0.110 C 
HETATM   26  C8    D T3000       0.588  -5.030  16.921  1.00 60.56     0.063 C 
HETATM   27  C10   D T3000       0.798  -6.204  17.905  1.00 62.17     0.292 C 
HETATM   28  N25   D T3000      -0.404  -7.083  18.019  1.00 62.01     0.339 N 
HETATM   29  C11   D T3000      -1.653  -6.329  18.344  1.00 60.06     0.292 C 
HETATM   30  C9    D T3000      -1.924  -5.182  17.342  1.00 59.17     0.063 C 
ENDBRANCH  23  25
ENDBRANCH   7  20
TORSDOF 5
ENDMDL
MODEL 2
REMARK VINA RESULT:    -8.168      2.036      2.829
REMARK INTER + INTRA:         -11.511
REMARK INTER:                 -10.622
REMARK INTRA:                  -0.889
REMARK UNBOUND:                -0.956
REMARK  5 active torsions:
REMARK  status: ('A' for Active; 'I' for Inactive)
REMARK    1  A    between atoms: C17_7  and  C21_10 
REMARK    2  A    between atoms: C21_10  and  O27_12 
REMARK    3  A    between atoms: O27_12  and  C15_13 
REMARK    4  A    between atoms: C14_19  and  C16_20 
REMARK    5  A    between atoms: N26_23  and  C20_25 
ROOT
HETATM    1  C15   D T3000      -1.755   0.879  14.531  1.00 38.99     0.125 A 
HETATM    2  C4    D T3000      -1.308  -0.363  15.084  1.00 40.94     0.029 A 
HETATM    3  C19   D T3000      -3.167   0.972  14.273  1.00 37.27     0.173 A 
HETATM    4  N22   D T3000      -3.702   2.161  13.738  1.00 36.61    -0.078 NA
HETATM    5  N23   D T3000      -4.054  -0.039  14.526  1.00 37.98    -0.228 NA
HETATM    6  C5    D T3000      -3.579  -1.216  15.054  1.00 40.12     0.100 A 
HETATM    7  C14   D T3000      -2.200  -1.435  15.355  1.00 40.87     0.024 A 
ENDROOT
BRANCH   1   8
HETATM    8  O27   D T3000      -0.906   1.965  14.267  1.00 42.27    -0.326 OA
BRANCH   8   9
HETATM    9  C21   D T3000       0.489   1.850  13.757  1.00 47.98     0.145 C 
HETATM   10  C1    D T3000       1.410   2.371  14.882  1.00 44.93     0.038 C 
BRANCH   9  11
HETATM   11  C17   D T3000       0.767   2.629  12.408  1.00 51.22     0.029 A 
HETATM   12  C13   D T3000       1.525   1.990  11.339  1.00 51.61     0.057 A 
HETATM   13 CL     D T3000       2.159   0.384  11.449  1.00 53.92    -0.083 Cl
HETATM   14  C3    D T3000       1.783   2.687  10.119  1.00 51.64     0.013 A 
HETATM   15  C2    D T3000       1.317   4.006   9.922  1.00 51.88     0.031 A 
HETATM   16  C12   D T3000       0.578   4.666  10.938  1.00 53.21     0.150 A 
HETATM   17  F     D T3000       0.151   5.922  10.718  1.00 51.93    -0.203 F 
HETATM   18  C18   D T3000       0.294   3.998  12.179  1.00 53.17     0.084 A 
HETATM   19 CL2    D T3000      -0.623   4.906  13.358  1.00 65.44    -0.080 Cl
ENDBRANCH   9  11
ENDBRANCH   8   9
ENDBRANCH   1   8
BRANCH   7  20
HETATM   20  C16   D T3000      -1.648  -2.721  15.935  1.00 44.81     0.041 A 
HETATM   21  C6    D T3000      -0.286  -3.254  15.920  1.00 45.20     0.122 A 
HETATM   22  N24   D T3000      -0.286  -4.390  16.543  1.00 48.48    -0.168 NA
HETATM   23  N26   D T3000      -1.486  -4.652  16.955  1.00 52.17    -0.252 N 
HETATM   24  C7    D T3000      -2.386  -3.666  16.618  1.00 48.89     0.097 A 
BRANCH  23  25
HETATM   25  C20   D T3000      -1.891  -5.858  17.709  1.00 57.73     0.110 C 
HETATM   26  C8    D T3000      -3.437  -5.893  17.841  1.00 60.56     0.063 C 
HETATM   27  C10   D T3000      -3.862  -7.157  18.624  1.00 62.17     0.292 C 
HETATM   28  N25   D T3000      -3.167  -7.280  19.940  1.00 62.01     0.339 N 
HETATM   29  C11   D T3000      -1.679  -7.194  19.828  1.00 60.06     0.292 C 
HETATM   30  C9    D T3000      -1.219  -5.909  19.099  1.00 59.17     0.063 C 
ENDBRANCH  23  25
ENDBRANCH   7  20
TORSDOF 5
ENDMDL
MODEL 3
REMARK VINA RESULT:    -7.970      1.889      2.478
REMARK INTER + INTRA:         -11.255
REMARK INTER:                 -10.480
REMARK INTRA:                  -0.775
REMARK UNBOUND:                -0.956
REMARK  5 active torsions:
REMARK  status: ('A' for Active; 'I' for Inactive)
REMARK    1  A    between atoms: C17_7  and  C21_10 
REMARK    2  A    between atoms: C21_10  and  O27_12 
REMARK    3  A    between atoms: O27_12  and  C15_13 
REMARK    4  A    between atoms: C14_19  and  C16_20 
REMARK    5  A    between atoms: N26_23  and  C20_25 
ROOT
HETATM    1  C15   D T3000      -1.827   0.773  14.544  1.00 38.99     0.125 A 
HETATM    2  C4    D T3000      -1.331  -0.452  15.093  1.00 40.94     0.029 A 
HETATM    3  C19   D T3000      -3.258   0.872  14.435  1.00 37.27     0.173 A 
HETATM    4  N22   D T3000      -3.840   2.045  13.916  1.00 36.61    -0.078 NA
HETATM    5  N23   D T3000      -4.119  -0.120  14.820  1.00 37.98    -0.228 NA
HETATM    6  C5    D T3000      -3.598  -1.282  15.338  1.00 40.12     0.100 A 
HETATM    7  C14   D T3000      -2.196  -1.505  15.498  1.00 40.87     0.024 A 
ENDROOT
BRANCH   1   8
HETATM    8  O27   D T3000      -1.004   1.839  14.150  1.00 42.27    -0.326 OA
BRANCH   8   9
HETATM    9  C21   D T3000       0.439   1.717  13.803  1.00 47.98     0.145 C 
HETATM   10  C1    D T3000       1.228   2.278  15.005  1.00 44.93     0.038 C 
BRANCH   9  11
HETATM   11  C17   D T3000       0.864   2.455  12.468  1.00 51.22     0.029 A 
HETATM   12  C13   D T3000       0.345   3.784  12.172  1.00 51.61     0.057 A 
HETATM   13 CL     D T3000      -0.737   4.639  13.217  1.00 53.92    -0.083 Cl
HETATM   14  C3    D T3000       0.720   4.457  10.969  1.00 51.64     0.013 A 
HETATM   15  C2    D T3000       1.594   3.850  10.040  1.00 51.88     0.031 A 
HETATM   16  C12   D T3000       2.120   2.555  10.287  1.00 53.21     0.150 A 
HETATM   17  F     D T3000       2.949   2.006   9.380  1.00 51.93    -0.203 F 
HETATM   18  C18   D T3000       1.770   1.847  11.489  1.00 53.17     0.084 A 
HETATM   19 CL2    D T3000       2.476   0.260  11.690  1.00 65.44    -0.080 Cl
ENDBRANCH   9  11
ENDBRANCH   8   9
ENDBRANCH   1   8
BRANCH   7  20
HETATM   20  C16   D T3000      -1.594  -2.773  16.065  1.00 44.81     0.041 A 
HETATM   21  C6    D T3000      -0.198  -3.205  16.134  1.00 45.20     0.122 A 
HETATM   22  N24   D T3000      -0.158  -4.367  16.705  1.00 48.48    -0.168 NA
HETATM   23  N26   D T3000      -1.363  -4.736  17.009  1.00 52.17    -0.252 N 
HETATM   24  C7    D T3000      -2.307  -3.802  16.645  1.00 48.89     0.097 A 
BRANCH  23  25
HETATM   25  C20   D T3000      -1.731  -6.003  17.676  1.00 57.73     0.110 C 
HETATM   26  C8    D T3000      -3.275  -6.158  17.681  1.00 60.56     0.063 C 
HETATM   27  C10   D T3000      -3.661  -7.486  18.373  1.00 62.17     0.292 C 
HETATM   28  N25   D T3000      -3.062  -7.622  19.734  1.00 62.01     0.339 N 
HETATM   29  C11   D T3000      -1.581  -7.421  19.746  1.00 60.06     0.292 C 
HETATM   30  C9    D T3000      -1.166  -6.072  19.113  1.00 59.17     0.063 C 
ENDBRANCH  23  25
ENDBRANCH   7  20
TORSDOF 5
ENDMDL
MODEL 4
REMARK VINA RESULT:    -7.880      2.023      2.847
REMARK INTER + INTRA:         -11.139
REMARK INTER:                 -10.263
REMARK INTRA:                  -0.876
REMARK UNBOUND:                -0.956
REMARK  5 active torsions:
REMARK  status: ('A' for Active; 'I' for Inactive)
REMARK    1  A    between atoms: C17_7  and  C21_10 
REMARK    2  A    between atoms: C21_10  and  O27_12 
REMARK    3  A    between atoms: O27_12  and  C15_13 
REMARK    4  A    between atoms: C14_19  and  C16_20 
REMARK    5  A    between atoms: N26_23  and  C20_25 
ROOT
HETATM    1  C15   D T3000      -1.815   0.883  14.627  1.00 38.99     0.125 A 
HETATM    2  C4    D T3000      -1.331  -0.339  15.194  1.00 40.94     0.029 A 
HETATM    3  C19   D T3000      -3.232   0.940  14.390  1.00 37.27     0.173 A 
HETATM    4  N22   D T3000      -3.803   2.107  13.843  1.00 36.61    -0.078 NA
HETATM    5  N23   D T3000      -4.092  -0.087  14.674  1.00 37.98    -0.228 NA
HETATM    6  C5    D T3000      -3.582  -1.244  15.214  1.00 40.12     0.100 A 
HETATM    7  C14   D T3000      -2.194  -1.426  15.497  1.00 40.87     0.024 A 
ENDROOT
BRANCH   1   8
HETATM    8  O27   D T3000      -0.995   1.983  14.332  1.00 42.27    -0.326 OA
BRANCH   8   9
HETATM    9  C21   D T3000       0.407   1.891  13.836  1.00 47.98     0.145 C 
HETATM   10  C1    D T3000       1.303   2.485  14.945  1.00 44.93     0.038 C 
BRANCH   9  11
HETATM   11  C17   D T3000       0.671   2.623  12.458  1.00 51.22     0.029 A 
HETATM   12  C13   D T3000       1.460   1.968  11.423  1.00 51.61     0.057 A 
HETATM   13 CL     D T3000       2.149   0.391  11.605  1.00 53.92    -0.083 Cl
HETATM   14  C3    D T3000       1.707   2.622  10.177  1.00 51.64     0.013 A 
HETATM   15  C2    D T3000       1.197   3.915   9.922  1.00 51.88     0.031 A 
HETATM   16  C12   D T3000       0.426   4.590  10.904  1.00 53.21     0.150 A 
HETATM   17  F     D T3000      -0.042   5.821  10.628  1.00 51.93    -0.203 F 
HETATM   18  C18   D T3000       0.153   3.964  12.169  1.00 53.17     0.084 A 
HETATM   19 CL2    D T3000      -0.807   4.887  13.302  1.00 65.44    -0.080 Cl
ENDBRANCH   9  11
ENDBRANCH   8   9
ENDBRANCH   1   8
BRANCH   7  20
HETATM   20  C16   D T3000      -1.604  -2.689  16.090  1.00 44.81     0.041 A 
HETATM   21  C6    D T3000      -2.260  -3.811  16.761  1.00 45.20     0.122 A 
HETATM   22  N24   D T3000      -1.351  -4.669  17.103  1.00 48.48    -0.168 NA
HETATM   23  N26   D T3000      -0.188  -4.230  16.735  1.00 52.17    -0.252 N 
HETATM   24  C7    D T3000      -0.262  -3.010  16.101  1.00 48.89     0.097 A 
BRANCH  23  25
HETATM   25  C20   D T3000       1.099  -4.927  16.946  1.00 57.73     0.110 C 
HETATM   26  C8    D T3000       1.017  -6.358  16.352  1.00 60.56     0.063 C 
HETATM   27  C10   D T3000       2.365  -7.086  16.566  1.00 62.17     0.292 C 
HETATM   28  N25   D T3000       2.804  -7.077  17.993  1.00 62.01     0.339 N 
HETATM   29  C11   D T3000       2.834  -5.706  18.589  1.00 60.06     0.292 C 
HETATM   30  C9    D T3000       1.480  -4.973  18.443  1.00 59.17     0.063 C 
ENDBRANCH  23  25
ENDBRANCH   7  20
TORSDOF 5
ENDMDL
MODEL 5
REMARK VINA RESULT:    -7.610      5.310      9.993
REMARK INTER + INTRA:         -10.790
REMARK INTER:                  -9.975
REMARK INTRA:                  -0.815
REMARK UNBOUND:                -0.956
REMARK  5 active torsions:
REMARK  status: ('A' for Active; 'I' for Inactive)
REMARK    1  A    between atoms: C17_7  and  C21_10 
REMARK    2  A    between atoms: C21_10  and  O27_12 
REMARK    3  A    between atoms: O27_12  and  C15_13 
REMARK    4  A    between atoms: C14_19  and  C16_20 
REMARK    5  A    between atoms: N26_23  and  C20_25 
ROOT
HETATM    1  C15   D T3000       3.009   0.709  14.408  1.00 38.99     0.125 A 
HETATM    2  C4    D T3000       3.256   1.655  13.363  1.00 40.94     0.029 A 
HETATM    3  C19   D T3000       4.151  -0.047  14.847  1.00 37.27     0.173 A 
HETATM    4  N22   D T3000       4.006  -0.995  15.879  1.00 36.61    -0.078 NA
HETATM    5  N23   D T3000       5.407   0.102  14.323  1.00 37.98    -0.228 NA
HETATM    6  C5    D T3000       5.598   1.020  13.317  1.00 40.12     0.100 A 
HETATM    7  C14   D T3000       4.547   1.832  12.793  1.00 40.87     0.024 A 
ENDROOT
BRANCH   1   8
HETATM    8  O27   D T3000       1.753   0.521  15.006  1.00 42.27    -0.326 OA
BRANCH   8   9
HETATM    9  C21   D T3000       0.767  -0.522  14.605  1.00 47.98     0.145 C 
HETATM   10  C1    D T3000       1.127  -0.934  13.162  1.00 44.93     0.038 C 
BRANCH   9  11
HETATM   11  C17   D T3000      -0.747  -0.069  14.692  1.00 51.22     0.029 A 
HETATM   12  C13   D T3000      -1.727  -0.920  15.355  1.00 51.61     0.057 A 
HETATM   13 CL     D T3000      -1.333  -2.440  16.081  1.00 53.92    -0.083 Cl
HETATM   14  C3    D T3000      -3.096  -0.520  15.435  1.00 51.64     0.013 A 
HETATM   15  C2    D T3000      -3.532   0.700  14.872  1.00 51.88     0.031 A 
HETATM   16  C12   D T3000      -2.611   1.557  14.214  1.00 53.21     0.150 A 
HETATM   17  F     D T3000      -3.060   2.710  13.687  1.00 51.93    -0.203 F 
HETATM   18  C18   D T3000      -1.224   1.192  14.116  1.00 53.17     0.084 A 
HETATM   19 CL2    D T3000      -0.181   2.323  13.285  1.00 65.44    -0.080 Cl
ENDBRANCH   9  11
ENDBRANCH   8   9
ENDBRANCH   1   8
BRANCH   7  20
HETATM   20  C16   D T3000       4.727   2.850  11.686  1.00 44.81     0.041 A 
HETATM   21  C6    D T3000       4.243   4.226  11.583  1.00 45.20     0.122 A 
HETATM   22  N24   D T3000       4.642   4.715  10.452  1.00 48.48    -0.168 NA
HETATM   23  N26   D T3000       5.323   3.816   9.814  1.00 52.17    -0.252 N 
HETATM   24  C7    D T3000       5.421   2.634  10.513  1.00 48.89     0.097 A 
BRANCH  23  25
HETATM   25  C20   D T3000       5.948   3.994   8.485  1.00 57.73     0.110 C 
HETATM   26  C8    D T3000       4.853   4.326   7.437  1.00 60.56     0.063 C 
HETATM   27  C10   D T3000       5.506   4.519   6.048  1.00 62.17     0.292 C 
HETATM   28  N25   D T3000       6.358   3.361   5.647  1.00 62.01     0.339 N 
HETATM   29  C11   D T3000       7.382   3.000   6.675  1.00 60.06     0.292 C 
HETATM   30  C9    D T3000       6.752   2.743   8.065  1.00 59.17     0.063 C 
ENDBRANCH  23  25
ENDBRANCH   7  20
TORSDOF 5
ENDMDL
MODEL 6
REMARK VINA RESULT:    -7.604      4.093      7.577
REMARK INTER + INTRA:         -10.782
REMARK INTER:                  -9.616
REMARK INTRA:                  -1.166
REMARK UNBOUND:                -0.956
REMARK  5 active torsions:
REMARK  status: ('A' for Active; 'I' for Inactive)
REMARK    1  A    between atoms: C17_7  and  C21_10 
REMARK    2  A    between atoms: C21_10  and  O27_12 
REMARK    3  A    between atoms: O27_12  and  C15_13 
REMARK    4  A    between atoms: C14_19  and  C16_20 
REMARK    5  A    between atoms: N26_23  and  C20_25 
ROOT
HETATM    1  C15   D T3000       2.870   2.971  10.683  1.00 38.99     0.125 A 
HETATM    2  C4    D T3000       1.591   2.916  11.323  1.00 40.94     0.029 A 
HETATM    3  C19   D T3000       3.351   4.288  10.366  1.00 37.27     0.173 A 
HETATM    4  N22   D T3000       4.606   4.443   9.743  1.00 36.61    -0.078 NA
HETATM    5  N23   D T3000       2.659   5.437  10.643  1.00 37.98    -0.228 NA
HETATM    6  C5    D T3000       1.432   5.336  11.255  1.00 40.12     0.100 A 
HETATM    7  C14   D T3000       0.843   4.088  11.621  1.00 40.87     0.024 A 
ENDROOT
BRANCH   1   8
HETATM    8  O27   D T3000       3.642   1.837  10.390  1.00 42.27    -0.326 OA
BRANCH   8   9
HETATM    9  C21   D T3000       4.651   1.233  11.305  1.00 47.98     0.145 C 
HETATM   10  C1    D T3000       5.325   0.087  10.520  1.00 44.93     0.038 C 
BRANCH   9  11
HETATM   11  C17   D T3000       4.065   0.696  12.674  1.00 51.22     0.029 A 
HETATM   12  C13   D T3000       4.780   0.940  13.920  1.00 51.61     0.057 A 
HETATM   13 CL     D T3000       6.276   1.807  14.006  1.00 53.92    -0.083 Cl
HETATM   14  C3    D T3000       4.261   0.457  15.160  1.00 51.64     0.013 A 
HETATM   15  C2    D T3000       3.050  -0.269  15.207  1.00 51.88     0.031 A 
HETATM   16  C12   D T3000       2.322  -0.531  14.017  1.00 53.21     0.150 A 
HETATM   17  F     D T3000       1.174  -1.226  14.098  1.00 51.93    -0.203 F 
HETATM   18  C18   D T3000       2.810  -0.059  12.749  1.00 53.17     0.084 A 
HETATM   19 CL2    D T3000       1.833  -0.439  11.350  1.00 65.44    -0.080 Cl
ENDBRANCH   9  11
ENDBRANCH   8   9
ENDBRANCH   1   8
BRANCH   7  20
HETATM   20  C16   D T3000      -0.506   3.947  12.295  1.00 44.81     0.041 A 
HETATM   21  C6    D T3000      -1.525   4.955  12.587  1.00 45.20     0.122 A 
HETATM   22  N24   D T3000      -2.518   4.371  13.178  1.00 48.48    -0.168 NA
HETATM   23  N26   D T3000      -2.259   3.107  13.303  1.00 52.17    -0.252 N 
HETATM   24  C7    D T3000      -1.032   2.767  12.780  1.00 48.89     0.097 A 
BRANCH  23  25
HETATM   25  C20   D T3000      -3.151   2.105  13.926  1.00 57.73     0.110 C 
HETATM   26  C8    D T3000      -2.299   0.959  14.535  1.00 60.56     0.063 C 
HETATM   27  C10   D T3000      -3.231  -0.086  15.192  1.00 62.17     0.292 C 
HETATM   28  N25   D T3000      -4.286  -0.583  14.259  1.00 62.01     0.339 N 
HETATM   29  C11   D T3000      -5.077   0.516  13.627  1.00 60.06     0.292 C 
HETATM   30  C9    D T3000      -4.175   1.550  12.910  1.00 59.17     0.063 C 
ENDBRANCH  23  25
ENDBRANCH   7  20
TORSDOF 5
ENDMDL
MODEL 7
REMARK VINA RESULT:    -7.562      5.345      9.715
REMARK INTER + INTRA:         -10.728
REMARK INTER:                  -9.750
REMARK INTRA:                  -0.978
REMARK UNBOUND:                -0.956
REMARK  5 active torsions:
REMARK  status: ('A' for Active; 'I' for Inactive)
REMARK    1  A    between atoms: C17_7  and  C21_10 
REMARK    2  A    between atoms: C21_10  and  O27_12 
REMARK    3  A    between atoms: O27_12  and  C15_13 
REMARK    4  A    between atoms: C14_19  and  C16_20 
REMARK    5  A    between atoms: N26_23  and  C20_25 
ROOT
HETATM    1  C15   D T3000       2.814   0.248  13.322  1.00 38.99     0.125 A 
HETATM    2  C4    D T3000       3.561   0.767  12.217  1.00 40.94     0.029 A 
HETATM    3  C19   D T3000       3.571  -0.505  14.285  1.00 37.27     0.173 A 
HETATM    4  N22   D T3000       2.923  -1.048  15.413  1.00 36.61    -0.078 NA
HETATM    5  N23   D T3000       4.918  -0.731  14.185  1.00 37.98    -0.228 NA
HETATM    6  C5    D T3000       5.594  -0.217  13.104  1.00 40.12     0.100 A 
HETATM    7  C14   D T3000       4.959   0.548  12.079  1.00 40.87     0.024 A 
ENDROOT
BRANCH   1   8
HETATM    8  O27   D T3000       1.438   0.459  13.499  1.00 42.27    -0.326 OA
BRANCH   8   9
HETATM    9  C21   D T3000       0.803   1.786  13.731  1.00 47.98     0.145 C 
HETATM   10  C1    D T3000       1.435   2.356  15.019  1.00 44.93     0.038 C 
BRANCH   9  11
HETATM   11  C17   D T3000      -0.775   1.752  13.856  1.00 51.22     0.029 A 
HETATM   12  C13   D T3000      -1.584   2.744  13.161  1.00 51.61     0.057 A 
HETATM   13 CL     D T3000      -0.914   3.998  12.173  1.00 53.92    -0.083 Cl
HETATM   14  C3    D T3000      -3.008   2.723  13.271  1.00 51.64     0.013 A 
HETATM   15  C2    D T3000      -3.662   1.747  14.056  1.00 51.88     0.031 A 
HETATM   16  C12   D T3000      -2.912   0.764  14.752  1.00 53.21     0.150 A 
HETATM   17  F     D T3000      -3.567  -0.149  15.491  1.00 51.93    -0.203 F 
HETATM   18  C18   D T3000      -1.477   0.749  14.664  1.00 53.17     0.084 A 
HETATM   19 CL2    D T3000      -0.656  -0.506  15.561  1.00 65.44    -0.080 Cl
ENDBRANCH   9  11
ENDBRANCH   8   9
ENDBRANCH   1   8
BRANCH   7  20
HETATM   20  C16   D T3000       5.677   1.126  10.878  1.00 44.81     0.041 A 
HETATM   21  C6    D T3000       6.801   0.596  10.105  1.00 45.20     0.122 A 
HETATM   22  N24   D T3000       7.081   1.439   9.162  1.00 48.48    -0.168 NA
HETATM   23  N26   D T3000       6.273   2.449   9.237  1.00 52.17    -0.252 N 
HETATM   24  C7    D T3000       5.374   2.329  10.273  1.00 48.89     0.097 A 
BRANCH  23  25
HETATM   25  C20   D T3000       6.274   3.619   8.332  1.00 57.73     0.110 C 
HETATM   26  C8    D T3000       6.197   4.923   9.171  1.00 60.56     0.063 C 
HETATM   27  C10   D T3000       6.204   6.148   8.226  1.00 62.17     0.292 C 
HETATM   28  N25   D T3000       5.145   6.072   7.176  1.00 62.01     0.339 N 
HETATM   29  C11   D T3000       5.179   4.795   6.399  1.00 60.06     0.292 C 
HETATM   30  C9    D T3000       5.114   3.549   7.314  1.00 59.17     0.063 C 
ENDBRANCH  23  25
ENDBRANCH   7  20
TORSDOF 5
ENDMDL
MODEL 8
REMARK VINA RESULT:    -7.544      5.134      9.292
REMARK INTER + INTRA:         -10.705
REMARK INTER:                 -10.020
REMARK INTRA:                  -0.685
REMARK UNBOUND:                -0.956
REMARK  5 active torsions:
REMARK  status: ('A' for Active; 'I' for Inactive)
REMARK    1  A    between atoms: C17_7  and  C21_10 
REMARK    2  A    between atoms: C21_10  and  O27_12 
REMARK    3  A    between atoms: O27_12  and  C15_13 
REMARK    4  A    between atoms: C14_19  and  C16_20 
REMARK    5  A    between atoms: N26_23  and  C20_25 
ROOT
HETATM    1  C15   D T3000       1.574   2.197  13.511  1.00 38.99     0.125 A 
HETATM    2  C4    D T3000       2.598   2.773  12.694  1.00 40.94     0.029 A 
HETATM    3  C19   D T3000       1.967   1.051  14.286  1.00 37.27     0.173 A 
HETATM    4  N22   D T3000       1.028   0.421  15.128  1.00 36.61    -0.078 NA
HETATM    5  N23   D T3000       3.228   0.518  14.268  1.00 37.98    -0.228 NA
HETATM    6  C5    D T3000       4.180   1.102  13.466  1.00 40.12     0.100 A 
HETATM    7  C14   D T3000       3.917   2.243  12.649  1.00 40.87     0.024 A 
ENDROOT
BRANCH   1   8
HETATM    8  O27   D T3000       0.268   2.703  13.594  1.00 42.27    -0.326 OA
BRANCH   8   9
HETATM    9  C21   D T3000      -0.284   3.781  12.726  1.00 47.98     0.145 C 
HETATM   10  C1    D T3000      -0.217   5.085  13.551  1.00 44.93     0.038 C 
BRANCH   9  11
HETATM   11  C17   D T3000      -1.759   3.526  12.212  1.00 51.22     0.029 A 
HETATM   12  C13   D T3000      -2.271   4.267  11.066  1.00 51.61     0.057 A 
HETATM   13 CL     D T3000      -1.343   5.444  10.201  1.00 53.92    -0.083 Cl
HETATM   14  C3    D T3000      -3.602   4.046  10.597  1.00 51.64     0.013 A 
HETATM   15  C2    D T3000      -4.451   3.112  11.231  1.00 51.88     0.031 A 
HETATM   16  C12   D T3000      -3.994   2.371  12.353  1.00 53.21     0.150 A 
HETATM   17  F     D T3000      -4.829   1.491  12.934  1.00 51.93    -0.203 F 
HETATM   18  C18   D T3000      -2.659   2.562  12.853  1.00 53.17     0.084 A 
HETATM   19 CL2    D T3000      -2.203   1.597  14.237  1.00 65.44    -0.080 Cl
ENDBRANCH   9  11
ENDBRANCH   8   9
ENDBRANCH   1   8
BRANCH   7  20
HETATM   20  C16   D T3000       4.944   2.906  11.755  1.00 44.81     0.041 A 
HETATM   21  C6    D T3000       6.236   3.506  12.087  1.00 45.20     0.122 A 
HETATM   22  N24   D T3000       6.771   3.953  10.995  1.00 48.48    -0.168 NA
HETATM   23  N26   D T3000       5.975   3.715  10.000  1.00 52.17    -0.252 N 
HETATM   24  C7    D T3000       4.823   3.069  10.390  1.00 48.89     0.097 A 
BRANCH  23  25
HETATM   25  C20   D T3000       6.233   4.073   8.589  1.00 57.73     0.110 C 
HETATM   26  C8    D T3000       4.885   4.191   7.829  1.00 60.56     0.063 C 
HETATM   27  C10   D T3000       5.154   4.572   6.354  1.00 62.17     0.292 C 
HETATM   28  N25   D T3000       6.115   3.645   5.686  1.00 62.01     0.339 N 
HETATM   29  C11   D T3000       7.396   3.485   6.440  1.00 60.06     0.292 C 
HETATM   30  C9    D T3000       7.163   3.046   7.905  1.00 59.17     0.063 C 
ENDBRANCH  23  25
ENDBRANCH   7  20
TORSDOF 5
ENDMDL
MODEL 9
REMARK VINA RESULT:    -7.523      5.441      9.988
REMARK INTER + INTRA:         -10.678
REMARK INTER:                  -9.980
REMARK INTRA:                  -0.698
REMARK UNBOUND:                -0.956
REMARK  5 active torsions:
REMARK  status: ('A' for Active; 'I' for Inactive)
REMARK    1  A    between atoms: C17_7  and  C21_10 
REMARK    2  A    between atoms: C21_10  and  O27_12 
REMARK    3  A    between atoms: O27_12  and  C15_13 
REMARK    4  A    between atoms: C14_19  and  C16_20 
REMARK    5  A    between atoms: N26_23  and  C20_25 
ROOT
HETATM    1  C15   D T3000       2.945   0.881  14.331  1.00 38.99     0.125 A 
HETATM    2  C4    D T3000       3.238   1.834  13.303  1.00 40.94     0.029 A 
HETATM    3  C19   D T3000       4.063   0.108  14.799  1.00 37.27     0.173 A 
HETATM    4  N22   D T3000       3.873  -0.849  15.817  1.00 36.61    -0.078 NA
HETATM    5  N23   D T3000       5.337   0.245  14.317  1.00 37.98    -0.228 NA
HETATM    6  C5    D T3000       5.572   1.169  13.328  1.00 40.12     0.100 A 
HETATM    7  C14   D T3000       4.549   1.999  12.777  1.00 40.87     0.024 A 
ENDROOT
BRANCH   1   8
HETATM    8  O27   D T3000       1.668   0.703  14.885  1.00 42.27    -0.326 OA
BRANCH   8   9
HETATM    9  C21   D T3000       0.732  -0.400  14.532  1.00 47.98     0.145 C 
HETATM   10  C1    D T3000       1.088  -0.833  13.093  1.00 44.93     0.038 C 
BRANCH   9  11
HETATM   11  C17   D T3000      -0.802  -0.025  14.635  1.00 51.22     0.029 A 
HETATM   12  C13   D T3000      -1.286   1.230  14.074  1.00 51.61     0.057 A 
HETATM   13 CL     D T3000      -0.263   2.374  13.274  1.00 53.92    -0.083 Cl
HETATM   14  C3    D T3000      -2.669   1.578  14.165  1.00 51.64     0.013 A 
HETATM   15  C2    D T3000      -3.594   0.721  14.802  1.00 51.88     0.031 A 
HETATM   16  C12   D T3000      -3.164  -0.510  15.365  1.00 53.21     0.150 A 
HETATM   17  F     D T3000      -4.071  -1.301  15.965  1.00 51.93    -0.203 F 
HETATM   18  C18   D T3000      -1.782  -0.898  15.290  1.00 53.17     0.084 A 
HETATM   19 CL2    D T3000      -1.365  -2.433  16.016  1.00 65.44    -0.080 Cl
ENDBRANCH   9  11
ENDBRANCH   8   9
ENDBRANCH   1   8
BRANCH   7  20
HETATM   20  C16   D T3000       4.777   3.025  11.687  1.00 44.81     0.041 A 
HETATM   21  C6    D T3000       4.436   4.446  11.642  1.00 45.20     0.122 A 
HETATM   22  N24   D T3000       4.825   4.924  10.503  1.00 48.48    -0.168 NA
HETATM   23  N26   D T3000       5.374   3.978   9.807  1.00 52.17    -0.252 N 
HETATM   24  C7    D T3000       5.383   2.772  10.472  1.00 48.89     0.097 A 
BRANCH  23  25
HETATM   25  C20   D T3000       5.945   4.129   8.452  1.00 57.73     0.110 C 
HETATM   26  C8    D T3000       4.797   4.315   7.423  1.00 60.56     0.063 C 
HETATM   27  C10   D T3000       5.393   4.480   6.006  1.00 62.17     0.292 C 
HETATM   28  N25   D T3000       6.322   3.370   5.639  1.00 62.01     0.339 N 
HETATM   29  C11   D T3000       7.400   3.149   6.651  1.00 60.06     0.292 C 
HETATM   30  C9    D T3000       6.833   2.922   8.073  1.00 59.17     0.063 C 
ENDBRANCH  23  25
ENDBRANCH   7  20
TORSDOF 5
ENDMDL
