MODEL 1
REMARK VINA RESULT:    -7.675      0.000      0.000
REMARK INTER + INTRA:          -9.106
REMARK INTER:                  -8.572
REMARK INTRA:                  -0.534
REMARK UNBOUND:                -0.534
REMARK  2 active torsions:
REMARK  status: ('A' for Active; 'I' for Inactive)
REMARK    1  A    between atoms: C5_4  and  O7_13 
REMARK    2  A    between atoms: C8_10  and  O7_13 
ROOT
HETATM    1  O7    D T1257       6.902   1.130  -6.808  1.00 58.14    -0.304 OA
ENDROOT
BRANCH   1   2
HETATM    2  C5    D T1257       7.144   1.354  -8.124  1.00 54.76     0.125 A 
HETATM    3  C6    D T1257       8.365   2.047  -8.539  1.00 52.65     0.154 A 
HETATM    4  C1    D T1257       8.597   2.277  -9.860  1.00 49.52     0.041 A 
HETATM    5  O17   D T1257       9.258   2.488  -7.597  1.00 50.16    -0.188 OA
HETATM    6  C2    D T1257       7.686   1.823 -10.817  1.00 49.27     0.060 A 
HETATM    7  C3    D T1257       6.517   1.141 -10.415  1.00 51.12     0.014 A 
HETATM    8 CL14   D T1257       7.998   2.098 -12.536  1.00 51.35    -0.082 Cl
HETATM    9  C4    D T1257       6.266   0.914  -9.059  1.00 53.80     0.028 A 
ENDBRANCH   1   2
BRANCH   1  10
HETATM   10  C8    D T1257       5.937   1.840  -6.163  1.00 62.04     0.111 A 
HETATM   11  C9    D T1257       4.694   1.184  -5.764  1.00 64.62     0.081 A 
HETATM   12  C10   D T1257       3.742   1.887  -5.100  1.00 65.99     0.025 A 
HETATM   13 CL16   D T1257       4.420  -0.530  -6.165  1.00 72.13    -0.080 Cl
HETATM   14  C11   D T1257       3.951   3.233  -4.799  1.00 67.33     0.059 A 
HETATM   15  C12   D T1257       5.161   3.871  -5.185  1.00 65.29     0.013 A 
HETATM   16 CL15   D T1257       2.698   4.154  -3.930  1.00 72.08    -0.082 Cl
HETATM   17  C13   D T1257       6.141   3.154  -5.862  1.00 62.19     0.026 A 
ENDBRANCH   1  10
TORSDOF 2
ENDMDL
MODEL 2
REMARK VINA RESULT:    -7.645      1.511      6.123
REMARK INTER + INTRA:          -9.073
REMARK INTER:                  -8.537
REMARK INTRA:                  -0.535
REMARK UNBOUND:                -0.534
REMARK  2 active torsions:
REMARK  status: ('A' for Active; 'I' for Inactive)
REMARK    1  A    between atoms: C5_4  and  O7_13 
REMARK    2  A    between atoms: C8_10  and  O7_13 
ROOT
HETATM    1  O7    D T1257       6.832   1.065  -6.795  1.00 58.14    -0.304 OA
ENDROOT
BRANCH   1   2
HETATM    2  C5    D T1257       5.886   1.785  -6.142  1.00 54.76     0.125 A 
HETATM    3  C6    D T1257       4.678   1.127  -5.638  1.00 52.65     0.154 A 
HETATM    4  C1    D T1257       3.729   1.857  -4.993  1.00 49.52     0.041 A 
HETATM    5  O17   D T1257       4.494  -0.216  -5.842  1.00 50.16    -0.188 OA
HETATM    6  C2    D T1257       3.923   3.225  -4.785  1.00 49.27     0.060 A 
HETATM    7  C3    D T1257       5.095   3.854  -5.257  1.00 51.12     0.014 A 
HETATM    8 CL14   D T1257       2.701   4.171  -3.924  1.00 51.35    -0.082 Cl
HETATM    9  C4    D T1257       6.068   3.113  -5.934  1.00 53.80     0.028 A 
ENDBRANCH   1   2
BRANCH   1  10
HETATM   10  C8    D T1257       7.083   1.305  -8.109  1.00 62.04     0.111 A 
HETATM   11  C9    D T1257       8.319   1.975  -8.505  1.00 64.62     0.081 A 
HETATM   12  C10   D T1257       8.580   2.193  -9.819  1.00 65.99     0.025 A 
HETATM   13 CL16   D T1257       9.474   2.524  -7.264  1.00 72.13    -0.080 Cl
HETATM   14  C11   D T1257       7.669   1.777 -10.790  1.00 67.33     0.059 A 
HETATM   15  C12   D T1257       6.467   1.122 -10.406  1.00 65.29     0.013 A 
HETATM   16 CL15   D T1257       8.012   2.067 -12.513  1.00 72.08    -0.082 Cl
HETATM   17  C13   D T1257       6.197   0.893  -9.061  1.00 62.19     0.026 A 
ENDBRANCH   1  10
TORSDOF 2
ENDMDL
MODEL 3
REMARK VINA RESULT:    -7.354      9.293     12.074
REMARK INTER + INTRA:          -8.747
REMARK INTER:                  -8.269
REMARK INTRA:                  -0.478
REMARK UNBOUND:                -0.534
REMARK  2 active torsions:
REMARK  status: ('A' for Active; 'I' for Inactive)
REMARK    1  A    between atoms: C5_4  and  O7_13 
REMARK    2  A    between atoms: C8_10  and  O7_13 
ROOT
HETATM    1  O7    D T1257       6.470   5.180   3.905  1.00 58.14    -0.304 OA
ENDROOT
BRANCH   1   2
HETATM    2  C5    D T1257       7.091   4.043   4.305  1.00 54.76     0.125 A 
HETATM    3  C6    D T1257       6.376   3.064   5.126  1.00 52.65     0.154 A 
HETATM    4  C1    D T1257       7.008   1.929   5.532  1.00 49.52     0.041 A 
HETATM    5  O17   D T1257       5.082   3.304   5.508  1.00 50.16    -0.188 OA
HETATM    6  C2    D T1257       8.327   1.687   5.138  1.00 49.27     0.060 A 
HETATM    7  C3    D T1257       9.009   2.624   4.333  1.00 51.12     0.014 A 
HETATM    8 CL14   D T1257       9.143   0.202   5.645  1.00 51.35    -0.082 Cl
HETATM    9  C4    D T1257       8.370   3.798   3.925  1.00 53.80     0.028 A 
ENDBRANCH   1   2
BRANCH   1  10
HETATM   10  C8    D T1257       6.330   5.448   2.579  1.00 62.04     0.111 A 
HETATM   11  C9    D T1257       6.897   6.671   2.019  1.00 64.62     0.081 A 
HETATM   12  C10   D T1257       6.776   6.927   0.690  1.00 65.99     0.025 A 
HETATM   13 CL16   D T1257       7.729   7.837   3.078  1.00 72.13    -0.080 Cl
HETATM   14  C11   D T1257       6.111   6.021  -0.136  1.00 67.33     0.059 A 
HETATM   15  C12   D T1257       5.562   4.829   0.408  1.00 65.29     0.013 A 
HETATM   16 CL15   D T1257       5.951   6.360  -1.877  1.00 72.08    -0.082 Cl
HETATM   17  C13   D T1257       5.685   4.561   1.767  1.00 62.19     0.026 A 
ENDBRANCH   1  10
TORSDOF 2
ENDMDL
MODEL 4
REMARK VINA RESULT:    -7.321      0.947      5.808
REMARK INTER + INTRA:          -8.710
REMARK INTER:                  -8.424
REMARK INTRA:                  -0.286
REMARK UNBOUND:                -0.534
REMARK  2 active torsions:
REMARK  status: ('A' for Active; 'I' for Inactive)
REMARK    1  A    between atoms: C5_4  and  O7_13 
REMARK    2  A    between atoms: C8_10  and  O7_13 
ROOT
HETATM    1  O7    D T1257       7.192   1.424  -6.574  1.00 58.14    -0.304 OA
ENDROOT
BRANCH   1   2
HETATM    2  C5    D T1257       6.163   2.071  -5.972  1.00 54.76     0.125 A 
HETATM    3  C6    D T1257       5.285   1.353  -5.045  1.00 52.65     0.154 A 
HETATM    4  C1    D T1257       4.248   2.006  -4.452  1.00 49.52     0.041 A 
HETATM    5  O17   D T1257       5.490   0.021  -4.799  1.00 50.16    -0.188 OA
HETATM    6  C2    D T1257       4.045   3.366  -4.704  1.00 49.27     0.060 A 
HETATM    7  C3    D T1257       4.902   4.058  -5.586  1.00 51.12     0.014 A 
HETATM    8 CL14   D T1257       2.713   4.222  -3.916  1.00 51.35    -0.082 Cl
HETATM    9  C4    D T1257       5.959   3.391  -6.210  1.00 53.80     0.028 A 
ENDBRANCH   1   2
BRANCH   1  10
HETATM   10  C8    D T1257       7.391   1.560  -7.912  1.00 62.04     0.111 A 
HETATM   11  C9    D T1257       6.443   0.970  -8.854  1.00 64.62     0.081 A 
HETATM   12  C10   D T1257       6.631   1.126 -10.190  1.00 65.99     0.025 A 
HETATM   13 CL16   D T1257       5.054   0.030  -8.253  1.00 72.13    -0.080 Cl
HETATM   14  C11   D T1257       7.727   1.849 -10.661  1.00 67.33     0.059 A 
HETATM   15  C12   D T1257       8.648   2.426  -9.744  1.00 65.29     0.013 A 
HETATM   16 CL15   D T1257       7.973   2.049 -12.413  1.00 72.08    -0.082 Cl
HETATM   17  C13   D T1257       8.459   2.272  -8.376  1.00 62.19     0.026 A 
ENDBRANCH   1  10
TORSDOF 2
ENDMDL
MODEL 5
REMARK VINA RESULT:    -7.255      2.268      6.043
REMARK INTER + INTRA:          -8.637
REMARK INTER:                  -8.155
REMARK INTRA:                  -0.482
REMARK UNBOUND:                -0.534
REMARK  2 active torsions:
REMARK  status: ('A' for Active; 'I' for Inactive)
REMARK    1  A    between atoms: C5_4  and  O7_13 
REMARK    2  A    between atoms: C8_10  and  O7_13 
ROOT
HETATM    1  O7    D T1257       6.640   3.522  -6.672  1.00 58.14    -0.304 OA
ENDROOT
BRANCH   1   2
HETATM    2  C5    D T1257       5.921   2.707  -5.860  1.00 54.76     0.125 A 
HETATM    3  C6    D T1257       4.669   3.179  -5.266  1.00 52.65     0.154 A 
HETATM    4  C1    D T1257       3.957   2.358  -4.446  1.00 49.52     0.041 A 
HETATM    5  O17   D T1257       4.230   4.453  -5.514  1.00 50.16    -0.188 OA
HETATM    6  C2    D T1257       4.407   1.059  -4.198  1.00 49.27     0.060 A 
HETATM    7  C3    D T1257       5.607   0.601  -4.785  1.00 51.12     0.014 A 
HETATM    8 CL14   D T1257       3.472  -0.017  -3.152  1.00 51.35    -0.082 Cl
HETATM    9  C4    D T1257       6.349   1.442  -5.617  1.00 53.80     0.028 A 
ENDBRANCH   1   2
BRANCH   1  10
HETATM   10  C8    D T1257       6.838   3.184  -7.974  1.00 62.04     0.111 A 
HETATM   11  C9    D T1257       8.114   2.610  -8.392  1.00 64.62     0.081 A 
HETATM   12  C10   D T1257       8.302   2.251  -9.688  1.00 65.99     0.025 A 
HETATM   13 CL16   D T1257       9.429   2.399  -7.209  1.00 72.13    -0.080 Cl
HETATM   14  C11   D T1257       7.277   2.431 -10.618  1.00 67.33     0.059 A 
HETATM   15  C12   D T1257       6.034   2.986 -10.210  1.00 65.29     0.013 A 
HETATM   16 CL15   D T1257       7.528   1.962 -12.317  1.00 72.08    -0.082 Cl
HETATM   17  C13   D T1257       5.835   3.352  -8.884  1.00 62.19     0.026 A 
ENDBRANCH   1  10
TORSDOF 2
ENDMDL
MODEL 6
REMARK VINA RESULT:    -7.151      1.531      2.323
REMARK INTER + INTRA:          -8.521
REMARK INTER:                  -8.018
REMARK INTRA:                  -0.503
REMARK UNBOUND:                -0.534
REMARK  2 active torsions:
REMARK  status: ('A' for Active; 'I' for Inactive)
REMARK    1  A    between atoms: C5_4  and  O7_13 
REMARK    2  A    between atoms: C8_10  and  O7_13 
ROOT
HETATM    1  O7    D T1257       6.701   3.449  -6.707  1.00 58.14    -0.304 OA
ENDROOT
BRANCH   1   2
HETATM    2  C5    D T1257       6.905   3.108  -8.004  1.00 54.76     0.125 A 
HETATM    3  C6    D T1257       8.216   2.618  -8.438  1.00 52.65     0.154 A 
HETATM    4  C1    D T1257       8.416   2.287  -9.742  1.00 49.52     0.041 A 
HETATM    5  O17   D T1257       9.244   2.522  -7.538  1.00 50.16    -0.188 OA
HETATM    6  C2    D T1257       7.363   2.384 -10.656  1.00 49.27     0.060 A 
HETATM    7  C3    D T1257       6.097   2.840 -10.231  1.00 51.12     0.014 A 
HETATM    8 CL14   D T1257       7.615   1.930 -12.347  1.00 51.35    -0.082 Cl
HETATM    9  C4    D T1257       5.888   3.196  -8.897  1.00 53.80     0.028 A 
ENDBRANCH   1   2
BRANCH   1  10
HETATM   10  C8    D T1257       5.982   2.631  -5.893  1.00 62.04     0.111 A 
HETATM   11  C9    D T1257       4.739   3.109  -5.293  1.00 64.62     0.081 A 
HETATM   12  C10   D T1257       4.010   2.283  -4.499  1.00 65.99     0.025 A 
HETATM   13 CL16   D T1257       4.190   4.779  -5.585  1.00 72.13    -0.080 Cl
HETATM   14  C11   D T1257       4.448   0.981  -4.258  1.00 67.33     0.059 A 
HETATM   15  C12   D T1257       5.656   0.515  -4.844  1.00 65.29     0.013 A 
HETATM   16 CL15   D T1257       3.491  -0.099  -3.214  1.00 72.08    -0.082 Cl
HETATM   17  C13   D T1257       6.404   1.355  -5.661  1.00 62.19     0.026 A 
ENDBRANCH   1  10
TORSDOF 2
ENDMDL
MODEL 7
REMARK VINA RESULT:    -7.124      2.014      2.264
REMARK INTER + INTRA:          -8.490
REMARK INTER:                  -8.000
REMARK INTRA:                  -0.491
REMARK UNBOUND:                -0.534
REMARK  2 active torsions:
REMARK  status: ('A' for Active; 'I' for Inactive)
REMARK    1  A    between atoms: C5_4  and  O7_13 
REMARK    2  A    between atoms: C8_10  and  O7_13 
ROOT
HETATM    1  O7    D T1257       4.409   1.654  -7.911  1.00 58.14    -0.304 OA
ENDROOT
BRANCH   1   2
HETATM    2  C5    D T1257       5.316   1.688  -8.919  1.00 54.76     0.125 A 
HETATM    3  C6    D T1257       5.333   2.814  -9.855  1.00 52.65     0.154 A 
HETATM    4  C1    D T1257       6.240   2.837 -10.870  1.00 49.52     0.041 A 
HETATM    5  O17   D T1257       4.419   3.827  -9.726  1.00 50.16    -0.188 OA
HETATM    6  C2    D T1257       7.171   1.804 -10.996  1.00 49.27     0.060 A 
HETATM    7  C3    D T1257       7.163   0.728 -10.083  1.00 51.12     0.014 A 
HETATM    8 CL14   D T1257       8.366   1.844 -12.299  1.00 51.35    -0.082 Cl
HETATM    9  C4    D T1257       6.226   0.690  -9.047  1.00 53.80     0.028 A 
ENDBRANCH   1   2
BRANCH   1  10
HETATM   10  C8    D T1257       4.792   1.950  -6.641  1.00 62.04     0.111 A 
HETATM   11  C9    D T1257       4.683   0.940  -5.592  1.00 64.62     0.081 A 
HETATM   12  C10   D T1257       5.088   1.230  -4.329  1.00 65.99     0.025 A 
HETATM   13 CL16   D T1257       4.003  -0.665  -5.964  1.00 72.13    -0.080 Cl
HETATM   14  C11   D T1257       5.606   2.491  -4.034  1.00 67.33     0.059 A 
HETATM   15  C12   D T1257       5.715   3.474  -5.056  1.00 65.29     0.013 A 
HETATM   16 CL15   D T1257       6.133   2.870  -2.376  1.00 72.08    -0.082 Cl
HETATM   17  C13   D T1257       5.305   3.181  -6.351  1.00 62.19     0.026 A 
ENDBRANCH   1  10
TORSDOF 2
ENDMDL
MODEL 8
REMARK VINA RESULT:    -6.823      2.296      6.007
REMARK INTER + INTRA:          -8.154
REMARK INTER:                  -7.650
REMARK INTRA:                  -0.504
REMARK UNBOUND:                -0.534
REMARK  2 active torsions:
REMARK  status: ('A' for Active; 'I' for Inactive)
REMARK    1  A    between atoms: C5_4  and  O7_13 
REMARK    2  A    between atoms: C8_10  and  O7_13 
ROOT
HETATM    1  O7    D T1257       4.216   2.276  -6.574  1.00 58.14    -0.304 OA
ENDROOT
BRANCH   1   2
HETATM    2  C5    D T1257       4.644   2.680  -5.352  1.00 54.76     0.125 A 
HETATM    3  C6    D T1257       4.473   4.074  -4.936  1.00 52.65     0.154 A 
HETATM    4  C1    D T1257       4.914   4.474  -3.712  1.00 49.52     0.041 A 
HETATM    5  O17   D T1257       3.897   4.978  -5.789  1.00 50.16    -0.188 OA
HETATM    6  C2    D T1257       5.498   3.548  -2.844  1.00 49.27     0.060 A 
HETATM    7  C3    D T1257       5.647   2.201  -3.241  1.00 51.12     0.014 A 
HETATM    8 CL14   D T1257       6.049   4.060  -1.244  1.00 51.35    -0.082 Cl
HETATM    9  C4    D T1257       5.210   1.786  -4.502  1.00 53.80     0.028 A 
ENDBRANCH   1   2
BRANCH   1  10
HETATM   10  C8    D T1257       5.115   2.046  -7.568  1.00 62.04     0.111 A 
HETATM   11  C9    D T1257       5.462   0.675  -7.934  1.00 64.62     0.081 A 
HETATM   12  C10   D T1257       6.342   0.447  -8.942  1.00 65.99     0.025 A 
HETATM   13 CL16   D T1257       4.748  -0.695  -7.045  1.00 72.13    -0.080 Cl
HETATM   14  C11   D T1257       6.912   1.520  -9.628  1.00 67.33     0.059 A 
HETATM   15  C12   D T1257       6.572   2.853  -9.274  1.00 65.29     0.013 A 
HETATM   16 CL15   D T1257       8.068   1.216 -10.948  1.00 72.08    -0.082 Cl
HETATM   17  C13   D T1257       5.669   3.093  -8.244  1.00 62.19     0.026 A 
ENDBRANCH   1  10
TORSDOF 2
ENDMDL
MODEL 9
REMARK VINA RESULT:    -6.795      2.530      6.272
REMARK INTER + INTRA:          -8.123
REMARK INTER:                  -7.781
REMARK INTRA:                  -0.343
REMARK UNBOUND:                -0.534
REMARK  2 active torsions:
REMARK  status: ('A' for Active; 'I' for Inactive)
REMARK    1  A    between atoms: C5_4  and  O7_13 
REMARK    2  A    between atoms: C8_10  and  O7_13 
ROOT
HETATM    1  O7    D T1257       4.136   2.101  -6.743  1.00 58.14    -0.304 OA
ENDROOT
BRANCH   1   2
HETATM    2  C5    D T1257       4.530   2.439  -5.490  1.00 54.76     0.125 A 
HETATM    3  C6    D T1257       4.557   1.430  -4.430  1.00 52.65     0.154 A 
HETATM    4  C1    D T1257       4.945   1.779  -3.173  1.00 49.52     0.041 A 
HETATM    5  O17   D T1257       4.166   0.144  -4.697  1.00 50.16    -0.188 OA
HETATM    6  C2    D T1257       5.346   3.090  -2.905  1.00 49.27     0.060 A 
HETATM    7  C3    D T1257       5.334   4.058  -3.933  1.00 51.12     0.014 A 
HETATM    8 CL14   D T1257       5.873   3.540  -1.278  1.00 51.35    -0.082 Cl
HETATM    9  C4    D T1257       4.923   3.710  -5.223  1.00 53.80     0.028 A 
ENDBRANCH   1   2
BRANCH   1  10
HETATM   10  C8    D T1257       5.064   1.872  -7.710  1.00 62.04     0.111 A 
HETATM   11  C9    D T1257       5.469   2.955  -8.602  1.00 64.62     0.081 A 
HETATM   12  C10   D T1257       6.413   2.731  -9.552  1.00 65.99     0.025 A 
HETATM   13 CL16   D T1257       4.713   4.562  -8.458  1.00 72.13    -0.080 Cl
HETATM   14  C11   D T1257       6.994   1.469  -9.675  1.00 67.33     0.059 A 
HETATM   15  C12   D T1257       6.602   0.416  -8.805  1.00 65.29     0.013 A 
HETATM   16 CL15   D T1257       8.229   1.178 -10.924  1.00 72.08    -0.082 Cl
HETATM   17  C13   D T1257       5.639   0.641  -7.828  1.00 62.19     0.026 A 
ENDBRANCH   1  10
TORSDOF 2
ENDMDL
