MODEL 1
REMARK VINA RESULT:    -8.711      0.000      0.000
REMARK INTER + INTRA:         -13.106
REMARK INTER:                 -12.276
REMARK INTRA:                  -0.829
REMARK UNBOUND:                -0.829
REMARK  7 active torsions:
REMARK  status: ('A' for Active; 'I' for Inactive)
REMARK    1  A    between atoms: C1_1  and  N13_22 
REMARK    2  A    between atoms: C2_2  and  O11_20 
REMARK    3  A    between atoms: C10_10  and  N14_11 
REMARK    4  A    between atoms: N14_11  and  C15_12 
REMARK       I    between atoms: N13_22  and  C26_23 
REMARK    5  A    between atoms: C26_23  and  C24_24 
REMARK    6  A    between atoms: C24_24  and  C23_25 
REMARK    7  A    between atoms: C23_25  and  C25_26 
ROOT
HETATM    1  C1    D T9001      -8.201  14.377 -22.504  1.00 30.38     0.107 A 
HETATM    2  C2    D T9001      -8.556  14.532 -23.887  1.00 29.65     0.113 A 
HETATM    3  C3    D T9001      -7.587  14.208 -24.889  1.00 28.21     0.045 A 
HETATM    4  C4    D T9001      -6.296  13.746 -24.558  1.00 27.21     0.088 A 
HETATM    5  C5    D T9001      -5.937  13.604 -23.168  1.00 26.27     0.055 A 
HETATM    6  C6    D T9001      -6.899  13.922 -22.162  1.00 29.22     0.026 A 
HETATM    7  N7    D T9001      -5.440  13.451 -25.568  1.00 25.99    -0.224 NA
HETATM    8  C8    D T9001      -4.213  13.015 -25.221  1.00 24.59     0.200 A 
HETATM    9  N9    D T9001      -3.756  12.850 -23.960  1.00 25.70    -0.205 NA
HETATM   10  C10   D T9001      -4.613  13.144 -22.920  1.00 27.48     0.166 A 
ENDROOT
BRANCH  10  11
HETATM   11  N14   D T9001      -4.158  12.984 -21.572  1.00 23.22    -0.227 NA
BRANCH  11  12
HETATM   12  C15   D T9001      -3.999  14.007 -20.602  1.00 24.25     0.084 A 
HETATM   13  C16   D T9001      -4.089  13.737 -19.198  1.00 25.06     0.033 A 
HETATM   14  C17   D T9001      -3.936  14.759 -18.250  1.00 28.28     0.087 A 
HETATM   15  C18   D T9001      -3.688  16.086 -18.676  1.00 25.55     0.151 A 
HETATM   16 CL     D T9001      -4.064  14.355 -16.581  1.00 31.70    -0.080 Cl
HETATM   17  C19   D T9001      -3.593  16.387 -20.058  1.00 24.70     0.032 A 
HETATM   18  F21   D T9001      -3.543  17.078 -17.786  1.00 27.22    -0.203 F 
HETATM   19  C20   D T9001      -3.748  15.349 -21.018  1.00 24.32     0.021 A 
ENDBRANCH  11  12
ENDBRANCH  10  11
BRANCH   1  20
HETATM   20  N13   D T9001      -9.194  14.671 -21.527  1.00 34.61    -0.210 NA
HETATM   21  C26   D T9001      -9.127  15.827 -20.729  1.00 36.24     0.256 C 
HETATM   22  O27   D T9001      -8.248  16.688 -20.775  1.00 39.97    -0.270 OA
BRANCH  21  23
HETATM   23  C24   D T9001     -10.273  15.900 -19.733  1.00 35.38     0.092 C 
BRANCH  23  24
HETATM   24  C23   D T9001     -11.000  17.254 -19.781  1.00 34.93     0.051 C 
BRANCH  24  25
HETATM   25  C25   D T9001     -11.071  17.837 -18.365  1.00 37.23     0.339 C 
HETATM   26  N33   D T9001     -11.511  19.282 -18.400  1.00 41.10     0.618 N 
ENDBRANCH  24  25
ENDBRANCH  23  24
ENDBRANCH  21  23
ENDBRANCH   1  20
BRANCH   2  27
HETATM   27  O11   D T9001      -9.847  14.995 -24.120  1.00 31.09    -0.327 OA
HETATM   28  C12   D T9001     -10.843  14.109 -24.641  1.00 29.66     0.181 C 
ENDBRANCH   2  27
TORSDOF 7
ENDMDL
MODEL 2
REMARK VINA RESULT:    -8.633      1.174      1.390
REMARK INTER + INTRA:         -12.995
REMARK INTER:                 -12.007
REMARK INTRA:                  -0.988
REMARK UNBOUND:                -0.829
REMARK  7 active torsions:
REMARK  status: ('A' for Active; 'I' for Inactive)
REMARK    1  A    between atoms: C1_1  and  N13_22 
REMARK    2  A    between atoms: C2_2  and  O11_20 
REMARK    3  A    between atoms: C10_10  and  N14_11 
REMARK    4  A    between atoms: N14_11  and  C15_12 
REMARK       I    between atoms: N13_22  and  C26_23 
REMARK    5  A    between atoms: C26_23  and  C24_24 
REMARK    6  A    between atoms: C24_24  and  C23_25 
REMARK    7  A    between atoms: C23_25  and  C25_26 
ROOT
HETATM    1  C1    D T9001      -8.113  14.212 -22.618  1.00 30.38     0.107 A 
HETATM    2  C2    D T9001      -8.323  14.361 -24.031  1.00 29.65     0.113 A 
HETATM    3  C3    D T9001      -7.242  14.072 -24.923  1.00 28.21     0.045 A 
HETATM    4  C4    D T9001      -5.979  13.651 -24.456  1.00 27.21     0.088 A 
HETATM    5  C5    D T9001      -5.767  13.516 -23.035  1.00 26.27     0.055 A 
HETATM    6  C6    D T9001      -6.841  13.798 -22.138  1.00 29.22     0.026 A 
HETATM    7  N7    D T9001      -5.011  13.388 -25.369  1.00 25.99    -0.224 NA
HETATM    8  C8    D T9001      -3.814  12.991 -24.892  1.00 24.59     0.200 A 
HETATM    9  N9    D T9001      -3.489  12.836 -23.590  1.00 25.70    -0.205 NA
HETATM   10  C10   D T9001      -4.463  13.098 -22.647  1.00 27.48     0.166 A 
ENDROOT
BRANCH  10  11
HETATM   11  N14   D T9001      -4.150  12.949 -21.258  1.00 23.22    -0.227 NA
BRANCH  11  12
HETATM   12  C15   D T9001      -3.992  13.988 -20.306  1.00 24.25     0.084 A 
HETATM   13  C16   D T9001      -4.107  13.746 -18.898  1.00 25.06     0.033 A 
HETATM   14  C17   D T9001      -3.955  14.784 -17.968  1.00 28.28     0.087 A 
HETATM   15  C18   D T9001      -3.685  16.099 -18.415  1.00 25.55     0.151 A 
HETATM   16 CL     D T9001      -4.114  14.414 -16.293  1.00 31.70    -0.080 Cl
HETATM   17  C19   D T9001      -3.564  16.373 -19.801  1.00 24.70     0.032 A 
HETATM   18  F21   D T9001      -3.540  17.107 -17.542  1.00 27.22    -0.203 F 
HETATM   19  C20   D T9001      -3.718  15.318 -20.743  1.00 24.32     0.021 A 
ENDBRANCH  11  12
ENDBRANCH  10  11
BRANCH   1  20
HETATM   20  N13   D T9001      -9.215  14.470 -21.753  1.00 34.61    -0.210 NA
HETATM   21  C26   D T9001      -9.223  15.566 -20.873  1.00 36.24     0.256 C 
HETATM   22  O27   D T9001      -8.325  16.401 -20.748  1.00 39.97    -0.270 OA
BRANCH  21  23
HETATM   23  C24   D T9001     -10.482  15.607 -20.024  1.00 35.38     0.092 C 
BRANCH  23  24
HETATM   24  C23   D T9001     -11.223  14.259 -20.016  1.00 34.93     0.051 C 
BRANCH  24  25
HETATM   25  C25   D T9001     -12.712  14.503 -20.293  1.00 37.23     0.339 C 
HETATM   26  N33   D T9001     -12.895  15.560 -21.355  1.00 41.10     0.618 N 
ENDBRANCH  24  25
ENDBRANCH  23  24
ENDBRANCH  21  23
ENDBRANCH   1  20
BRANCH   2  27
HETATM   27  O11   D T9001      -9.596  14.782 -24.401  1.00 31.09    -0.327 OA
HETATM   28  C12   D T9001     -10.515  13.856 -24.988  1.00 29.66     0.181 C 
ENDBRANCH   2  27
TORSDOF 7
ENDMDL
MODEL 3
REMARK VINA RESULT:    -8.574      1.539      1.882
REMARK INTER + INTRA:         -12.912
REMARK INTER:                 -11.828
REMARK INTRA:                  -1.084
REMARK UNBOUND:                -0.829
REMARK  7 active torsions:
REMARK  status: ('A' for Active; 'I' for Inactive)
REMARK    1  A    between atoms: C1_1  and  N13_22 
REMARK    2  A    between atoms: C2_2  and  O11_20 
REMARK    3  A    between atoms: C10_10  and  N14_11 
REMARK    4  A    between atoms: N14_11  and  C15_12 
REMARK       I    between atoms: N13_22  and  C26_23 
REMARK    5  A    between atoms: C26_23  and  C24_24 
REMARK    6  A    between atoms: C24_24  and  C23_25 
REMARK    7  A    between atoms: C23_25  and  C25_26 
ROOT
HETATM    1  C1    D T9001      -8.794  14.827 -21.691  1.00 30.38     0.107 A 
HETATM    2  C2    D T9001      -9.196  14.036 -22.820  1.00 29.65     0.113 A 
HETATM    3  C3    D T9001      -8.195  13.578 -23.735  1.00 28.21     0.045 A 
HETATM    4  C4    D T9001      -6.829  13.884 -23.562  1.00 27.21     0.088 A 
HETATM    5  C5    D T9001      -6.429  14.691 -22.434  1.00 26.27     0.055 A 
HETATM    6  C6    D T9001      -7.420  15.149 -21.515  1.00 29.22     0.026 A 
HETATM    7  N7    D T9001      -5.943  13.402 -24.469  1.00 25.99    -0.224 NA
HETATM    8  C8    D T9001      -4.645  13.714 -24.279  1.00 24.59     0.200 A 
HETATM    9  N9    D T9001      -4.148  14.466 -23.273  1.00 25.70    -0.205 NA
HETATM   10  C10   D T9001      -5.035  14.963 -22.339  1.00 27.48     0.166 A 
ENDROOT
BRANCH  10  11
HETATM   11  N14   D T9001      -4.541  15.767 -21.263  1.00 23.22    -0.227 NA
BRANCH  11  12
HETATM   12  C15   D T9001      -4.336  15.357 -19.921  1.00 24.25     0.084 A 
HETATM   13  C16   D T9001      -4.083  16.302 -18.873  1.00 25.06     0.033 A 
HETATM   14  C17   D T9001      -3.875  15.882 -17.552  1.00 28.28     0.087 A 
HETATM   15  C18   D T9001      -3.913  14.503 -17.234  1.00 25.55     0.151 A 
HETATM   16 CL     D T9001      -3.570  17.078 -16.350  1.00 31.70    -0.080 Cl
HETATM   17  C19   D T9001      -4.163  13.543 -18.247  1.00 24.70     0.032 A 
HETATM   18  F21   D T9001      -3.713  14.081 -15.977  1.00 27.22    -0.203 F 
HETATM   19  C20   D T9001      -4.373  13.970 -19.587  1.00 24.32     0.021 A 
ENDBRANCH  11  12
ENDBRANCH  10  11
BRANCH   1  20
HETATM   20  N13   D T9001      -9.803  15.240 -20.776  1.00 34.61    -0.210 NA
HETATM   21  C26   D T9001     -10.408  16.506 -20.863  1.00 36.24     0.256 C 
HETATM   22  O27   D T9001     -10.156  17.371 -21.703  1.00 39.97    -0.270 OA
BRANCH  21  23
HETATM   23  C24   D T9001     -11.422  16.733 -19.754  1.00 35.38     0.092 C 
BRANCH  23  24
HETATM   24  C23   D T9001     -10.861  17.614 -18.625  1.00 34.93     0.051 C 
BRANCH  24  25
HETATM   25  C25   D T9001     -11.705  18.889 -18.517  1.00 37.23     0.339 C 
HETATM   26  N33   D T9001     -10.919  20.094 -18.975  1.00 41.10     0.618 N 
ENDBRANCH  24  25
ENDBRANCH  23  24
ENDBRANCH  21  23
ENDBRANCH   1  20
BRANCH   2  27
HETATM   27  O11   D T9001     -10.562  13.786 -22.912  1.00 31.09    -0.327 OA
HETATM   28  C12   D T9001     -11.342  14.430 -23.923  1.00 29.66     0.181 C 
ENDBRANCH   2  27
TORSDOF 7
ENDMDL
MODEL 4
REMARK VINA RESULT:    -8.500      3.275      6.195
REMARK INTER + INTRA:         -12.808
REMARK INTER:                 -11.774
REMARK INTRA:                  -1.034
REMARK UNBOUND:                -0.829
REMARK  7 active torsions:
REMARK  status: ('A' for Active; 'I' for Inactive)
REMARK    1  A    between atoms: C1_1  and  N13_22 
REMARK    2  A    between atoms: C2_2  and  O11_20 
REMARK    3  A    between atoms: C10_10  and  N14_11 
REMARK    4  A    between atoms: N14_11  and  C15_12 
REMARK       I    between atoms: N13_22  and  C26_23 
REMARK    5  A    between atoms: C26_23  and  C24_24 
REMARK    6  A    between atoms: C24_24  and  C23_25 
REMARK    7  A    between atoms: C23_25  and  C25_26 
ROOT
HETATM    1  C1    D T9001      -5.759  14.078 -20.975  1.00 30.38     0.107 A 
HETATM    2  C2    D T9001      -5.171  13.715 -22.234  1.00 29.65     0.113 A 
HETATM    3  C3    D T9001      -5.967  13.803 -23.420  1.00 28.21     0.045 A 
HETATM    4  C4    D T9001      -7.311  14.231 -23.388  1.00 27.21     0.088 A 
HETATM    5  C5    D T9001      -7.905  14.581 -22.120  1.00 26.27     0.055 A 
HETATM    6  C6    D T9001      -7.116  14.500 -20.932  1.00 29.22     0.026 A 
HETATM    7  N7    D T9001      -7.993  14.295 -24.558  1.00 25.99    -0.224 NA
HETATM    8  C8    D T9001      -9.276  14.705 -24.495  1.00 24.59     0.200 A 
HETATM    9  N9    D T9001      -9.945  15.050 -23.373  1.00 25.70    -0.205 NA
HETATM   10  C10   D T9001      -9.267  14.991 -22.173  1.00 27.48     0.166 A 
ENDROOT
BRANCH  10  11
HETATM   11  N14   D T9001      -9.948  15.346 -20.966  1.00 23.22    -0.227 NA
BRANCH  11  12
HETATM   12  C15   D T9001     -10.207  16.657 -20.490  1.00 24.25     0.084 A 
HETATM   13  C16   D T9001     -10.933  16.890 -19.277  1.00 25.06     0.033 A 
HETATM   14  C17   D T9001     -11.188  18.192 -18.821  1.00 28.28     0.087 A 
HETATM   15  C18   D T9001     -10.725  19.303 -19.565  1.00 25.55     0.151 A 
HETATM   16 CL     D T9001     -12.073  18.390 -17.357  1.00 31.70    -0.080 Cl
HETATM   17  C19   D T9001     -10.002  19.108 -20.769  1.00 24.70     0.032 A 
HETATM   18  F21   D T9001     -10.962  20.556 -19.149  1.00 27.22    -0.203 F 
HETATM   19  C20   D T9001      -9.745  17.786 -21.229  1.00 24.32     0.021 A 
ENDBRANCH  11  12
ENDBRANCH  10  11
BRANCH   1  20
HETATM   20  N13   D T9001      -4.936  14.017 -19.815  1.00 34.61    -0.210 NA
HETATM   21  C26   D T9001      -4.195  15.126 -19.374  1.00 36.24     0.256 C 
HETATM   22  O27   D T9001      -4.169  16.237 -19.907  1.00 39.97    -0.270 OA
BRANCH  21  23
HETATM   23  C24   D T9001      -3.362  14.805 -18.145  1.00 35.38     0.092 C 
BRANCH  23  24
HETATM   24  C23   D T9001      -2.968  16.069 -17.362  1.00 34.93     0.051 C 
BRANCH  24  25
HETATM   25  C25   D T9001      -4.094  16.425 -16.383  1.00 37.23     0.339 C 
HETATM   26  N33   D T9001      -4.509  15.217 -15.579  1.00 41.10     0.618 N 
ENDBRANCH  24  25
ENDBRANCH  23  24
ENDBRANCH  21  23
ENDBRANCH   1  20
BRANCH   2  27
HETATM   27  O11   D T9001      -3.843  13.303 -22.171  1.00 31.09    -0.327 OA
HETATM   28  C12   D T9001      -3.241  12.653 -23.294  1.00 29.66     0.181 C 
ENDBRANCH   2  27
TORSDOF 7
ENDMDL
MODEL 5
REMARK VINA RESULT:    -8.420      4.063      6.233
REMARK INTER + INTRA:         -12.695
REMARK INTER:                 -11.721
REMARK INTRA:                  -0.974
REMARK UNBOUND:                -0.829
REMARK  7 active torsions:
REMARK  status: ('A' for Active; 'I' for Inactive)
REMARK    1  A    between atoms: C1_1  and  N13_22 
REMARK    2  A    between atoms: C2_2  and  O11_20 
REMARK    3  A    between atoms: C10_10  and  N14_11 
REMARK    4  A    between atoms: N14_11  and  C15_12 
REMARK       I    between atoms: N13_22  and  C26_23 
REMARK    5  A    between atoms: C26_23  and  C24_24 
REMARK    6  A    between atoms: C24_24  and  C23_25 
REMARK    7  A    between atoms: C23_25  and  C25_26 
ROOT
HETATM    1  C1    D T9001      -6.370  15.243 -21.116  1.00 30.38     0.107 A 
HETATM    2  C2    D T9001      -5.288  14.939 -20.222  1.00 29.65     0.113 A 
HETATM    3  C3    D T9001      -4.163  14.208 -20.721  1.00 28.21     0.045 A 
HETATM    4  C4    D T9001      -4.089  13.775 -22.061  1.00 27.21     0.088 A 
HETATM    5  C5    D T9001      -5.184  14.068 -22.955  1.00 26.27     0.055 A 
HETATM    6  C6    D T9001      -6.308  14.800 -22.465  1.00 29.22     0.026 A 
HETATM    7  N7    D T9001      -2.984  13.096 -22.457  1.00 25.99    -0.224 NA
HETATM    8  C8    D T9001      -2.944  12.692 -23.743  1.00 24.59     0.200 A 
HETATM    9  N9    D T9001      -3.905  12.896 -24.670  1.00 25.70    -0.205 NA
HETATM   10  C10   D T9001      -5.036  13.586 -24.285  1.00 27.48     0.166 A 
ENDROOT
BRANCH  10  11
HETATM   11  N14   D T9001      -6.075  13.815 -25.242  1.00 23.22    -0.227 NA
BRANCH  11  12
HETATM   12  C15   D T9001      -6.971  12.851 -25.771  1.00 24.25     0.084 A 
HETATM   13  C16   D T9001      -6.537  11.837 -26.686  1.00 25.06     0.033 A 
HETATM   14  C17   D T9001      -7.435  10.895 -27.207  1.00 28.28     0.087 A 
HETATM   15  C18   D T9001      -8.799  10.936 -26.831  1.00 25.55     0.151 A 
HETATM   16 CL     D T9001      -6.836   9.712 -28.306  1.00 31.70    -0.080 Cl
HETATM   17  C19   D T9001      -9.262  11.925 -25.927  1.00 24.70     0.032 A 
HETATM   18  F21   D T9001      -9.674  10.046 -27.321  1.00 27.22    -0.203 F 
HETATM   19  C20   D T9001      -8.349  12.880 -25.399  1.00 24.32     0.021 A 
ENDBRANCH  11  12
ENDBRANCH  10  11
BRANCH   1  20
HETATM   20  N13   D T9001      -7.460  16.002 -20.605  1.00 34.61    -0.210 NA
HETATM   21  C26   D T9001      -8.576  15.387 -20.011  1.00 36.24     0.256 C 
HETATM   22  O27   D T9001      -8.740  14.174 -19.862  1.00 39.97    -0.270 OA
BRANCH  21  23
HETATM   23  C24   D T9001      -9.626  16.398 -19.583  1.00 35.38     0.092 C 
BRANCH  23  24
HETATM   24  C23   D T9001     -10.242  17.139 -20.781  1.00 34.93     0.051 C 
BRANCH  24  25
HETATM   25  C25   D T9001     -10.423  18.619 -20.419  1.00 37.23     0.339 C 
HETATM   26  N33   D T9001      -9.494  19.488 -21.232  1.00 41.10     0.618 N 
ENDBRANCH  24  25
ENDBRANCH  23  24
ENDBRANCH  21  23
ENDBRANCH   1  20
BRANCH   2  27
HETATM   27  O11   D T9001      -5.446  15.403 -18.919  1.00 31.09    -0.327 OA
HETATM   28  C12   D T9001      -4.300  15.758 -18.141  1.00 29.66     0.181 C 
ENDBRANCH   2  27
TORSDOF 7
ENDMDL
MODEL 6
REMARK VINA RESULT:    -8.291      3.432      6.986
REMARK INTER + INTRA:         -12.514
REMARK INTER:                 -11.754
REMARK INTRA:                  -0.759
REMARK UNBOUND:                -0.829
REMARK  7 active torsions:
REMARK  status: ('A' for Active; 'I' for Inactive)
REMARK    1  A    between atoms: C1_1  and  N13_22 
REMARK    2  A    between atoms: C2_2  and  O11_20 
REMARK    3  A    between atoms: C10_10  and  N14_11 
REMARK    4  A    between atoms: N14_11  and  C15_12 
REMARK       I    between atoms: N13_22  and  C26_23 
REMARK    5  A    between atoms: C26_23  and  C24_24 
REMARK    6  A    between atoms: C24_24  and  C23_25 
REMARK    7  A    between atoms: C23_25  and  C25_26 
ROOT
HETATM    1  C1    D T9001      -6.425  13.705 -23.601  1.00 30.38     0.107 A 
HETATM    2  C2    D T9001      -5.061  13.398 -23.275  1.00 29.65     0.113 A 
HETATM    3  C3    D T9001      -4.592  13.660 -21.948  1.00 28.21     0.045 A 
HETATM    4  C4    D T9001      -5.428  14.214 -20.956  1.00 27.21     0.088 A 
HETATM    5  C5    D T9001      -6.795  14.536 -21.291  1.00 26.27     0.055 A 
HETATM    6  C6    D T9001      -7.271  14.274 -22.611  1.00 29.22     0.026 A 
HETATM    7  N7    D T9001      -4.909  14.422 -19.721  1.00 25.99    -0.224 NA
HETATM    8  C8    D T9001      -5.731  14.956 -18.795  1.00 24.59     0.200 A 
HETATM    9  N9    D T9001      -7.021  15.307 -18.987  1.00 25.70    -0.205 NA
HETATM   10  C10   D T9001      -7.567  15.102 -20.238  1.00 27.48     0.166 A 
ENDROOT
BRANCH  10  11
HETATM   11  N14   D T9001      -8.930  15.468 -20.475  1.00 23.22    -0.227 NA
BRANCH  11  12
HETATM   12  C15   D T9001      -9.516  16.743 -20.270  1.00 24.25     0.084 A 
HETATM   13  C16   D T9001     -10.426  16.991 -19.191  1.00 25.06     0.033 A 
HETATM   14  C17   D T9001     -11.004  18.255 -19.005  1.00 28.28     0.087 A 
HETATM   15  C18   D T9001     -10.691  19.313 -19.891  1.00 25.55     0.151 A 
HETATM   16 CL     D T9001     -12.094  18.472 -17.689  1.00 31.70    -0.080 Cl
HETATM   17  C19   D T9001      -9.793  19.101 -20.968  1.00 24.70     0.032 A 
HETATM   18  F21   D T9001     -11.236  20.528 -19.732  1.00 27.22    -0.203 F 
HETATM   19  C20   D T9001      -9.207  17.818 -21.156  1.00 24.32     0.021 A 
ENDBRANCH  11  12
ENDBRANCH  10  11
BRANCH   1  20
HETATM   20  N13   D T9001      -6.878  13.402 -24.917  1.00 34.61    -0.210 NA
HETATM   21  C26   D T9001      -8.004  12.593 -25.144  1.00 36.24     0.256 C 
HETATM   22  O27   D T9001      -8.709  12.074 -24.276  1.00 39.97    -0.270 OA
BRANCH  21  23
HETATM   23  C24   D T9001      -8.264  12.377 -26.625  1.00 35.38     0.092 C 
BRANCH  23  24
HETATM   24  C23   D T9001      -7.051  11.763 -27.345  1.00 34.93     0.051 C 
BRANCH  24  25
HETATM   25  C25   D T9001      -7.408  10.347 -27.814  1.00 37.23     0.339 C 
HETATM   26  N33   D T9001      -8.806   9.975 -27.381  1.00 41.10     0.618 N 
ENDBRANCH  24  25
ENDBRANCH  23  24
ENDBRANCH  21  23
ENDBRANCH   1  20
BRANCH   2  27
HETATM   27  O11   D T9001      -4.310  12.857 -24.314  1.00 31.09    -0.327 OA
HETATM   28  C12   D T9001      -3.044  12.249 -24.041  1.00 29.66     0.181 C 
ENDBRANCH   2  27
TORSDOF 7
ENDMDL
MODEL 7
REMARK VINA RESULT:    -8.132      2.152      5.430
REMARK INTER + INTRA:         -12.289
REMARK INTER:                 -11.567
REMARK INTRA:                  -0.722
REMARK UNBOUND:                -0.829
REMARK  7 active torsions:
REMARK  status: ('A' for Active; 'I' for Inactive)
REMARK    1  A    between atoms: C1_1  and  N13_22 
REMARK    2  A    between atoms: C2_2  and  O11_20 
REMARK    3  A    between atoms: C10_10  and  N14_11 
REMARK    4  A    between atoms: N14_11  and  C15_12 
REMARK       I    between atoms: N13_22  and  C26_23 
REMARK    5  A    between atoms: C26_23  and  C24_24 
REMARK    6  A    between atoms: C24_24  and  C23_25 
REMARK    7  A    between atoms: C23_25  and  C25_26 
ROOT
HETATM    1  C1    D T9001      -8.420  13.440 -23.785  1.00 30.38     0.107 A 
HETATM    2  C2    D T9001      -9.834  13.683 -23.725  1.00 29.65     0.113 A 
HETATM    3  C3    D T9001     -10.371  14.363 -22.587  1.00 28.21     0.045 A 
HETATM    4  C4    D T9001      -9.554  14.798 -21.522  1.00 27.21     0.088 A 
HETATM    5  C5    D T9001      -8.135  14.539 -21.577  1.00 26.27     0.055 A 
HETATM    6  C6    D T9001      -7.591  13.864 -22.711  1.00 29.22     0.026 A 
HETATM    7  N7    D T9001     -10.140  15.445 -20.484  1.00 25.99    -0.224 NA
HETATM    8  C8    D T9001      -9.333  15.844 -19.480  1.00 24.59     0.200 A 
HETATM    9  N9    D T9001      -7.998  15.655 -19.411  1.00 25.70    -0.205 NA
HETATM   10  C10   D T9001      -7.384  14.999 -20.459  1.00 27.48     0.166 A 
ENDROOT
BRANCH  10  11
HETATM   11  N14   D T9001      -5.971  14.777 -20.414  1.00 23.22    -0.227 NA
BRANCH  11  12
HETATM   12  C15   D T9001      -5.060  15.288 -19.454  1.00 24.25     0.084 A 
HETATM   13  C16   D T9001      -5.158  14.950 -18.065  1.00 25.06     0.033 A 
HETATM   14  C17   D T9001      -4.255  15.468 -17.125  1.00 28.28     0.087 A 
HETATM   15  C18   D T9001      -3.225  16.344 -17.544  1.00 25.55     0.151 A 
HETATM   16 CL     D T9001      -4.443  15.018 -15.473  1.00 31.70    -0.080 Cl
HETATM   17  C19   D T9001      -3.100  16.698 -18.911  1.00 24.70     0.032 A 
HETATM   18  F21   D T9001      -2.354  16.853 -16.661  1.00 27.22    -0.203 F 
HETATM   19  C20   D T9001      -4.016  16.171 -19.863  1.00 24.32     0.021 A 
ENDBRANCH  11  12
ENDBRANCH  10  11
BRANCH   1  20
HETATM   20  N13   D T9001      -7.906  12.793 -24.944  1.00 34.61    -0.210 NA
HETATM   21  C26   D T9001      -7.306  13.515 -25.990  1.00 36.24     0.256 C 
HETATM   22  O27   D T9001      -7.155  14.737 -26.031  1.00 39.97    -0.270 OA
BRANCH  21  23
HETATM   23  C24   D T9001      -6.876  12.613 -27.134  1.00 35.38     0.092 C 
BRANCH  23  24
HETATM   24  C23   D T9001      -5.639  11.771 -26.779  1.00 34.93     0.051 C 
BRANCH  24  25
HETATM   25  C25   D T9001      -4.467  12.709 -26.463  1.00 37.23     0.339 C 
HETATM   26  N33   D T9001      -3.753  12.272 -25.207  1.00 41.10     0.618 N 
ENDBRANCH  24  25
ENDBRANCH  23  24
ENDBRANCH  21  23
ENDBRANCH   1  20
BRANCH   2  27
HETATM   27  O11   D T9001     -10.562  13.219 -24.817  1.00 31.09    -0.327 OA
HETATM   28  C12   D T9001     -11.727  13.925 -25.253  1.00 29.66     0.181 C 
ENDBRANCH   2  27
TORSDOF 7
ENDMDL
MODEL 8
REMARK VINA RESULT:    -8.098      2.804      5.982
REMARK INTER + INTRA:         -12.241
REMARK INTER:                 -11.188
REMARK INTRA:                  -1.053
REMARK UNBOUND:                -0.829
REMARK  7 active torsions:
REMARK  status: ('A' for Active; 'I' for Inactive)
REMARK    1  A    between atoms: C1_1  and  N13_22 
REMARK    2  A    between atoms: C2_2  and  O11_20 
REMARK    3  A    between atoms: C10_10  and  N14_11 
REMARK    4  A    between atoms: N14_11  and  C15_12 
REMARK       I    between atoms: N13_22  and  C26_23 
REMARK    5  A    between atoms: C26_23  and  C24_24 
REMARK    6  A    between atoms: C24_24  and  C23_25 
REMARK    7  A    between atoms: C23_25  and  C25_26 
ROOT
HETATM    1  C1    D T9001      -9.580  13.795 -23.672  1.00 30.38     0.107 A 
HETATM    2  C2    D T9001     -10.830  14.461 -23.910  1.00 29.65     0.113 A 
HETATM    3  C3    D T9001     -11.352  15.331 -22.901  1.00 28.21     0.045 A 
HETATM    4  C4    D T9001     -10.679  15.549 -21.681  1.00 27.21     0.088 A 
HETATM    5  C5    D T9001      -9.430  14.867 -21.438  1.00 26.27     0.055 A 
HETATM    6  C6    D T9001      -8.901  14.000 -22.441  1.00 29.22     0.026 A 
HETATM    7  N7    D T9001     -11.236  16.397 -20.782  1.00 25.99    -0.224 NA
HETATM    8  C8    D T9001     -10.571  16.582 -19.623  1.00 24.59     0.200 A 
HETATM    9  N9    D T9001      -9.405  15.997 -19.275  1.00 25.70    -0.205 NA
HETATM   10  C10   D T9001      -8.822  15.132 -20.179  1.00 27.48     0.166 A 
ENDROOT
BRANCH  10  11
HETATM   11  N14   D T9001      -7.588  14.491 -19.839  1.00 23.22    -0.227 NA
BRANCH  11  12
HETATM   12  C15   D T9001      -6.308  15.098 -19.764  1.00 24.25     0.084 A 
HETATM   13  C16   D T9001      -5.600  15.515 -20.937  1.00 25.06     0.033 A 
HETATM   14  C17   D T9001      -4.332  16.107 -20.849  1.00 28.28     0.087 A 
HETATM   15  C18   D T9001      -3.729  16.300 -19.583  1.00 25.55     0.151 A 
HETATM   16 CL     D T9001      -3.543  16.576 -22.306  1.00 31.70    -0.080 Cl
HETATM   17  C19   D T9001      -4.403  15.899 -18.402  1.00 24.70     0.032 A 
HETATM   18  F21   D T9001      -2.515  16.860 -19.477  1.00 27.22    -0.203 F 
HETATM   19  C20   D T9001      -5.689  15.299 -18.493  1.00 24.32     0.021 A 
ENDBRANCH  11  12
ENDBRANCH  10  11
BRANCH   1  20
HETATM   20  N13   D T9001      -9.064  12.963 -24.706  1.00 34.61    -0.210 NA
HETATM   21  C26   D T9001      -8.103  13.428 -25.620  1.00 36.24     0.256 C 
HETATM   22  O27   D T9001      -7.608  14.556 -25.637  1.00 39.97    -0.270 OA
BRANCH  21  23
HETATM   23  C24   D T9001      -7.741  12.375 -26.653  1.00 35.38     0.092 C 
BRANCH  23  24
HETATM   24  C23   D T9001      -8.778  11.241 -26.718  1.00 34.93     0.051 C 
BRANCH  24  25
HETATM   25  C25   D T9001      -8.230  10.108 -27.594  1.00 37.23     0.339 C 
HETATM   26  N33   D T9001      -6.722  10.069 -27.542  1.00 41.10     0.618 N 
ENDBRANCH  24  25
ENDBRANCH  23  24
ENDBRANCH  21  23
ENDBRANCH   1  20
BRANCH   2  27
HETATM   27  O11   D T9001     -11.424  14.187 -25.138  1.00 31.09    -0.327 OA
HETATM   28  C12   D T9001     -12.830  14.387 -25.315  1.00 29.66     0.181 C 
ENDBRANCH   2  27
TORSDOF 7
ENDMDL
MODEL 9
REMARK VINA RESULT:    -7.996      1.885      2.563
REMARK INTER + INTRA:         -12.097
REMARK INTER:                 -11.069
REMARK INTRA:                  -1.028
REMARK UNBOUND:                -0.829
REMARK  7 active torsions:
REMARK  status: ('A' for Active; 'I' for Inactive)
REMARK    1  A    between atoms: C1_1  and  N13_22 
REMARK    2  A    between atoms: C2_2  and  O11_20 
REMARK    3  A    between atoms: C10_10  and  N14_11 
REMARK    4  A    between atoms: N14_11  and  C15_12 
REMARK       I    between atoms: N13_22  and  C26_23 
REMARK    5  A    between atoms: C26_23  and  C24_24 
REMARK    6  A    between atoms: C24_24  and  C23_25 
REMARK    7  A    between atoms: C23_25  and  C25_26 
ROOT
HETATM    1  C1    D T9001      -9.425  14.601 -23.896  1.00 30.38     0.107 A 
HETATM    2  C2    D T9001     -10.217  13.705 -24.689  1.00 29.65     0.113 A 
HETATM    3  C3    D T9001      -9.556  12.814 -25.593  1.00 28.21     0.045 A 
HETATM    4  C4    D T9001      -8.152  12.794 -25.730  1.00 27.21     0.088 A 
HETATM    5  C5    D T9001      -7.358  13.705 -24.942  1.00 26.27     0.055 A 
HETATM    6  C6    D T9001      -8.010  14.595 -24.035  1.00 29.22     0.026 A 
HETATM    7  N7    D T9001      -7.604  11.912 -26.602  1.00 25.99    -0.224 NA
HETATM    8  C8    D T9001      -6.260  11.919 -26.713  1.00 24.59     0.200 A 
HETATM    9  N9    D T9001      -5.412  12.726 -26.040  1.00 25.70    -0.205 NA
HETATM   10  C10   D T9001      -5.952  13.630 -25.148  1.00 27.48     0.166 A 
ENDROOT
BRANCH  10  11
HETATM   11  N14   D T9001      -5.081  14.503 -24.423  1.00 23.22    -0.227 NA
BRANCH  11  12
HETATM   12  C15   D T9001      -4.654  14.354 -23.079  1.00 24.25     0.084 A 
HETATM   13  C16   D T9001      -4.270  15.479 -22.278  1.00 25.06     0.033 A 
HETATM   14  C17   D T9001      -3.842  15.315 -20.953  1.00 28.28     0.087 A 
HETATM   15  C18   D T9001      -3.783  14.020 -20.384  1.00 25.55     0.151 A 
HETATM   16 CL     D T9001      -3.393  16.716 -20.058  1.00 31.70    -0.080 Cl
HETATM   17  C19   D T9001      -4.156  12.886 -21.148  1.00 24.70     0.032 A 
HETATM   18  F21   D T9001      -3.373  13.842 -19.120  1.00 27.22    -0.203 F 
HETATM   19  C20   D T9001      -4.591  13.054 -22.493  1.00 24.32     0.021 A 
ENDBRANCH  11  12
ENDBRANCH  10  11
BRANCH   1  20
HETATM   20  N13   D T9001     -10.103  15.452 -22.978  1.00 34.61    -0.210 NA
HETATM   21  C26   D T9001     -10.226  15.124 -21.617  1.00 36.24     0.256 C 
HETATM   22  O27   D T9001      -9.781  14.112 -21.073  1.00 39.97    -0.270 OA
BRANCH  21  23
HETATM   23  C24   D T9001     -11.027  16.163 -20.849  1.00 35.38     0.092 C 
BRANCH  23  24
HETATM   24  C23   D T9001     -10.147  16.986 -19.893  1.00 34.93     0.051 C 
BRANCH  24  25
HETATM   25  C25   D T9001     -11.037  17.640 -18.829  1.00 37.23     0.339 C 
HETATM   26  N33   D T9001     -11.092  19.136 -19.020  1.00 41.10     0.618 N 
ENDBRANCH  24  25
ENDBRANCH  23  24
ENDBRANCH  21  23
ENDBRANCH   1  20
BRANCH   2  27
HETATM   27  O11   D T9001     -11.592  13.794 -24.491  1.00 31.09    -0.327 OA
HETATM   28  C12   D T9001     -12.402  14.530 -25.413  1.00 29.66     0.181 C 
ENDBRANCH   2  27
TORSDOF 7
ENDMDL
