MODEL 1
REMARK VINA RESULT:    -9.112      0.000      0.000
REMARK INTER + INTRA:         -14.147
REMARK INTER:                 -12.841
REMARK INTRA:                  -1.307
REMARK UNBOUND:                -1.307
REMARK  7 active torsions:
REMARK  status: ('A' for Active; 'I' for Inactive)
REMARK    1  A    between atoms: N3_2  and  C8_7 
REMARK    2  A    between atoms: C5_4  and  C9_34 
REMARK    3  A    between atoms: C7_6  and  N5_28 
REMARK       I    between atoms: C21_13  and  N6_18 
REMARK    4  A    between atoms: C21_13  and  C18_23 
REMARK    5  A    between atoms: C22_14  and  N6_18 
REMARK    6  A    between atoms: C16_24  and  O3_25 
REMARK    7  A    between atoms: N5_28  and  C1_29 
ROOT
HETATM    1  N1    D T 401      -2.457   1.127  10.924  1.00 24.43    -0.056 NA
HETATM    2  N3    D T 401       1.521   0.037  10.275  1.00 24.87    -0.328 N 
HETATM    3  C4    D T 401      -1.574   2.128  10.777  1.00 24.33     0.138 A 
HETATM    4  C5    D T 401       2.583   1.067  10.116  1.00 24.68     0.162 A 
HETATM    5  C6    D T 401       2.112   2.481  10.156  1.00 25.06     0.258 A 
HETATM    6  C1    D T 401      -2.094  -0.182  10.867  1.00 24.96     0.752 A 
HETATM    7  N2    D T 401      -0.799  -0.529  10.653  1.00 25.42    -0.041 NA
HETATM    8  C2    D T 401       0.168   0.407  10.491  1.00 24.50     0.176 A 
HETATM    9  O1    D T 401       2.975   3.386  10.023  1.00 25.29    -0.270 OA
HETATM   10  N4    D T 401       0.757   2.835  10.395  1.00 24.77    -0.292 N 
HETATM   11  C11   D T 401       0.374   4.254  10.456  1.00 25.67     0.134 C 
HETATM   12  C3    D T 401      -0.228   1.835  10.556  1.00 24.44     0.117 A 
ENDROOT
BRANCH   6  13
HETATM   13  N5    D T 401      -3.074  -1.106  11.032  1.00 24.95    -0.057 NA
BRANCH  13  14
HETATM   14  C7    D T 401      -2.963  -2.450  11.234  1.00 25.44     0.122 A 
HETATM   15  C20   D T 401      -2.014  -3.046  12.074  1.00 23.96     0.022 A 
HETATM   16  C19   D T 401      -1.968  -4.438  12.212  1.00 24.92     0.006 A 
HETATM   17  C18   D T 401      -2.859  -5.268  11.520  1.00 25.62     0.060 A 
HETATM   18  C17   D T 401      -3.815  -4.716  10.669  1.00 25.49     0.030 A 
HETATM   19  C16   D T 401      -3.906  -3.337  10.494  1.00 24.16     0.113 A 
BRANCH  17  20
HETATM   20  C21   D T 401      -2.805  -6.765  11.661  1.00 26.92     0.275 C 
HETATM   21  O2    D T 401      -3.841  -7.348  11.941  1.00 30.54    -0.266 OA
HETATM   22  N6    D T 401      -1.654  -7.418  11.486  1.00 31.16    -0.236 NA
BRANCH  22  23
HETATM   23  C22   D T 401      -1.505  -8.823  11.832  1.00 34.88     0.111 C 
HETATM   24  C29   D T 401      -0.492  -9.512  10.920  1.00 36.76     0.048 C 
HETATM   25  C28   D T 401      -0.415 -11.006  11.241  1.00 38.21     0.099 C 
HETATM   26  N7    D T 401      -0.144 -11.130  12.675  1.00 37.76    -0.367 N 
HETATM   27  C24   D T 401      -0.991 -10.469  13.668  1.00 37.52     0.099 C 
HETATM   28  C30   D T 401       0.982 -11.939  13.125  1.00 36.85     0.121 C 
HETATM   29  C23   D T 401      -1.053  -8.991  13.282  1.00 35.87     0.048 C 
ENDBRANCH  22  23
ENDBRANCH  17  20
BRANCH  19  30
HETATM   30  O3    D T 401      -4.851  -2.793   9.660  1.00 24.11    -0.327 OA
HETATM   31  C31   D T 401      -5.769  -3.616   8.935  1.00 17.70     0.181 C 
ENDBRANCH  19  30
ENDBRANCH  13  14
ENDBRANCH   6  13
BRANCH   2  32
HETATM   32  C8    D T 401       1.790  -1.424  10.199  1.00 24.12     0.083 C 
HETATM   33  C15   D T 401       2.204  -2.108  11.497  1.00 23.24     0.022 C 
HETATM   34  C14   D T 401       3.042  -3.315  11.072  1.00 24.93     0.002 C 
HETATM   35  C13   D T 401       3.644  -2.977   9.685  1.00 23.09     0.002 C 
HETATM   36  C12   D T 401       2.823  -1.800   9.129  1.00 23.56     0.022 C 
ENDBRANCH   2  32
BRANCH   4  37
HETATM   37  C9    D T 401       3.605   0.967  11.264  1.00 25.78     0.032 C 
HETATM   38  C10   D T 401       5.007   0.617  10.792  1.00 24.04     0.003 C 
ENDBRANCH   4  37
TORSDOF 7
ENDMDL
MODEL 2
REMARK VINA RESULT:    -9.095      2.480      4.981
REMARK INTER + INTRA:         -14.123
REMARK INTER:                 -13.138
REMARK INTRA:                  -0.985
REMARK UNBOUND:                -1.307
REMARK  7 active torsions:
REMARK  status: ('A' for Active; 'I' for Inactive)
REMARK    1  A    between atoms: N3_2  and  C8_7 
REMARK    2  A    between atoms: C5_4  and  C9_34 
REMARK    3  A    between atoms: C7_6  and  N5_28 
REMARK       I    between atoms: C21_13  and  N6_18 
REMARK    4  A    between atoms: C21_13  and  C18_23 
REMARK    5  A    between atoms: C22_14  and  N6_18 
REMARK    6  A    between atoms: C16_24  and  O3_25 
REMARK    7  A    between atoms: N5_28  and  C1_29 
ROOT
HETATM    1  N1    D T 401       0.324  -0.340  11.789  1.00 24.43    -0.056 NA
HETATM    2  N3    D T 401      -3.531   0.227  10.288  1.00 24.87    -0.328 N 
HETATM    3  C4    D T 401       0.075   0.838  11.193  1.00 24.33     0.138 A 
HETATM    4  C5    D T 401      -3.907   1.489   9.595  1.00 24.68     0.162 A 
HETATM    5  C6    D T 401      -2.837   2.524   9.528  1.00 25.06     0.258 A 
HETATM    6  C1    D T 401      -0.620  -1.312  11.908  1.00 24.96     0.752 A 
HETATM    7  N2    D T 401      -1.872  -1.119  11.420  1.00 25.42    -0.041 NA
HETATM    8  C2    D T 401      -2.223   0.036  10.803  1.00 24.50     0.176 A 
HETATM    9  O1    D T 401      -3.110   3.608   8.954  1.00 25.29    -0.270 OA
HETATM   10  N4    D T 401      -1.525   2.308  10.030  1.00 24.77    -0.292 N 
HETATM   11  C11   D T 401      -0.510   3.365   9.895  1.00 25.67     0.134 C 
HETATM   12  C3    D T 401      -1.193   1.094  10.671  1.00 24.44     0.117 A 
ENDROOT
BRANCH   6  13
HETATM   13  N5    D T 401      -0.252  -2.461  12.528  1.00 24.95    -0.057 NA
BRANCH  13  14
HETATM   14  C7    D T 401      -0.611  -3.745  12.241  1.00 25.44     0.122 A 
HETATM   15  C20   D T 401      -1.917  -4.242  12.348  1.00 23.96     0.022 A 
HETATM   16  C19   D T 401      -2.191  -5.580  12.041  1.00 24.92     0.006 A 
HETATM   17  C18   D T 401      -1.178  -6.453  11.624  1.00 25.62     0.060 A 
HETATM   18  C17   D T 401       0.135  -6.001  11.510  1.00 25.49     0.030 A 
HETATM   19  C16   D T 401       0.465  -4.679  11.803  1.00 24.16     0.113 A 
BRANCH  17  20
HETATM   20  C21   D T 401      -1.470  -7.893  11.302  1.00 26.92     0.275 C 
HETATM   21  O2    D T 401      -2.351  -8.128  10.489  1.00 30.54    -0.266 OA
HETATM   22  N6    D T 401      -0.784  -8.871  11.897  1.00 31.16    -0.236 NA
BRANCH  22  23
HETATM   23  C22   D T 401      -1.179 -10.266  11.791  1.00 34.88     0.111 C 
HETATM   24  C29   D T 401      -0.042 -11.123  11.239  1.00 36.76     0.048 C 
HETATM   25  C28   D T 401      -0.506 -12.568  11.052  1.00 38.21     0.099 C 
HETATM   26  N7    D T 401      -1.056 -13.019  12.331  1.00 37.76    -0.367 N 
HETATM   27  C24   D T 401      -2.106 -12.263  13.015  1.00 37.52     0.099 C 
HETATM   28  C30   D T 401      -0.560 -14.251  12.933  1.00 36.85     0.121 C 
HETATM   29  C23   D T 401      -1.600 -10.826  13.149  1.00 35.87     0.048 C 
ENDBRANCH  22  23
ENDBRANCH  17  20
BRANCH  19  30
HETATM   30  O3    D T 401       1.758  -4.233  11.684  1.00 24.11    -0.327 OA
HETATM   31  C31   D T 401       2.326  -3.923  10.410  1.00 17.70     0.181 C 
ENDBRANCH  19  30
ENDBRANCH  13  14
ENDBRANCH   6  13
BRANCH   2  32
HETATM   32  C8    D T 401      -4.485  -0.893  10.508  1.00 24.12     0.083 C 
HETATM   33  C15   D T 401      -4.298  -2.128   9.634  1.00 23.24     0.022 C 
HETATM   34  C14   D T 401      -5.681  -2.772   9.538  1.00 24.93     0.002 C 
HETATM   35  C13   D T 401      -6.718  -1.643   9.760  1.00 23.09     0.002 C 
HETATM   36  C12   D T 401      -5.956  -0.472  10.403  1.00 23.56     0.022 C 
ENDBRANCH   2  32
BRANCH   4  37
HETATM   37  C9    D T 401      -4.265   1.207   8.123  1.00 25.78     0.032 C 
HETATM   38  C10   D T 401      -5.641   1.723   7.731  1.00 24.04     0.003 C 
ENDBRANCH   4  37
TORSDOF 7
ENDMDL
MODEL 3
REMARK VINA RESULT:    -8.520      2.872     10.152
REMARK INTER + INTRA:         -13.313
REMARK INTER:                 -12.763
REMARK INTRA:                  -0.550
REMARK UNBOUND:                -1.307
REMARK  7 active torsions:
REMARK  status: ('A' for Active; 'I' for Inactive)
REMARK    1  A    between atoms: N3_2  and  C8_7 
REMARK    2  A    between atoms: C5_4  and  C9_34 
REMARK    3  A    between atoms: C7_6  and  N5_28 
REMARK       I    between atoms: C21_13  and  N6_18 
REMARK    4  A    between atoms: C21_13  and  C18_23 
REMARK    5  A    between atoms: C22_14  and  N6_18 
REMARK    6  A    between atoms: C16_24  and  O3_25 
REMARK    7  A    between atoms: N5_28  and  C1_29 
ROOT
HETATM    1  N1    D T 401       2.327  -6.455  12.623  1.00 24.43    -0.056 NA
HETATM    2  N3    D T 401      -0.947  -8.945  11.906  1.00 24.87    -0.328 N 
HETATM    3  C4    D T 401       2.450  -7.737  13.003  1.00 24.33     0.138 A 
HETATM    4  C5    D T 401      -0.922 -10.379  12.304  1.00 24.68     0.162 A 
HETATM    5  C6    D T 401       0.352 -10.849  12.916  1.00 25.06     0.258 A 
HETATM    6  C1    D T 401       1.201  -5.973  12.032  1.00 24.96     0.752 A 
HETATM    7  N2    D T 401       0.142  -6.789  11.799  1.00 25.42    -0.041 NA
HETATM    8  C2    D T 401       0.167  -8.100  12.145  1.00 24.50     0.176 A 
HETATM    9  O1    D T 401       0.420 -12.055  13.266  1.00 25.29    -0.270 OA
HETATM   10  N4    D T 401       1.451  -9.984  13.169  1.00 24.77    -0.292 N 
HETATM   11  C11   D T 401       2.664 -10.515  13.810  1.00 25.67     0.134 C 
HETATM   12  C3    D T 401       1.394  -8.624  12.792  1.00 24.44     0.117 A 
ENDROOT
BRANCH   6  13
HETATM   13  N5    D T 401       1.192  -4.659  11.693  1.00 24.95    -0.057 NA
BRANCH  13  14
HETATM   14  C7    D T 401       0.131  -3.813  11.556  1.00 25.44     0.122 A 
HETATM   15  C20   D T 401      -1.059  -3.917  12.289  1.00 23.96     0.022 A 
HETATM   16  C19   D T 401      -2.102  -3.008  12.075  1.00 24.92     0.006 A 
HETATM   17  C18   D T 401      -1.988  -1.981  11.129  1.00 25.62     0.060 A 
HETATM   18  C17   D T 401      -0.825  -1.846  10.375  1.00 25.49     0.030 A 
HETATM   19  C16   D T 401       0.245  -2.723  10.547  1.00 24.16     0.113 A 
BRANCH  17  20
HETATM   20  C21   D T 401      -3.112  -1.008  10.892  1.00 26.92     0.275 C 
HETATM   21  O2    D T 401      -4.243  -1.364  11.183  1.00 30.54    -0.266 OA
HETATM   22  N6    D T 401      -2.863   0.198  10.377  1.00 31.16    -0.236 NA
BRANCH  22  23
HETATM   23  C22   D T 401      -3.929   1.076   9.922  1.00 34.88     0.111 C 
HETATM   24  C29   D T 401      -3.440   2.517   9.792  1.00 36.76     0.048 C 
HETATM   25  C28   D T 401      -4.596   3.439   9.399  1.00 38.21     0.099 C 
HETATM   26  N7    D T 401      -5.207   2.882   8.192  1.00 37.76    -0.367 N 
HETATM   27  C24   D T 401      -5.664   1.492   8.144  1.00 37.52     0.099 C 
HETATM   28  C30   D T 401      -5.378   3.727   7.017  1.00 36.85     0.121 C 
HETATM   29  C23   D T 401      -4.481   0.623   8.571  1.00 35.87     0.048 C 
ENDBRANCH  22  23
ENDBRANCH  17  20
BRANCH  19  30
HETATM   30  O3    D T 401       1.394  -2.587   9.807  1.00 24.11    -0.327 OA
HETATM   31  C31   D T 401       1.828  -1.311   9.332  1.00 17.70     0.181 C 
ENDBRANCH  19  30
ENDBRANCH  13  14
ENDBRANCH   6  13
BRANCH   2  32
HETATM   32  C8    D T 401      -2.107  -8.312  11.223  1.00 24.12     0.083 C 
HETATM   33  C15   D T 401      -1.786  -7.362  10.076  1.00 23.24     0.022 C 
HETATM   34  C14   D T 401      -2.959  -6.383  10.017  1.00 24.93     0.002 C 
HETATM   35  C13   D T 401      -3.575  -6.335  11.438  1.00 23.09     0.002 C 
HETATM   36  C12   D T 401      -3.053  -7.577  12.180  1.00 23.56     0.022 C 
ENDBRANCH   2  32
BRANCH   4  37
HETATM   37  C9    D T 401      -1.993 -10.657  13.376  1.00 25.78     0.032 C 
HETATM   38  C10   D T 401      -1.754  -9.900  14.673  1.00 24.04     0.003 C 
ENDBRANCH   4  37
TORSDOF 7
ENDMDL
MODEL 4
REMARK VINA RESULT:    -8.459      2.534      4.691
REMARK INTER + INTRA:         -13.226
REMARK INTER:                 -12.370
REMARK INTRA:                  -0.857
REMARK UNBOUND:                -1.307
REMARK  7 active torsions:
REMARK  status: ('A' for Active; 'I' for Inactive)
REMARK    1  A    between atoms: N3_2  and  C8_7 
REMARK    2  A    between atoms: C5_4  and  C9_34 
REMARK    3  A    between atoms: C7_6  and  N5_28 
REMARK       I    between atoms: C21_13  and  N6_18 
REMARK    4  A    between atoms: C21_13  and  C18_23 
REMARK    5  A    between atoms: C22_14  and  N6_18 
REMARK    6  A    between atoms: C16_24  and  O3_25 
REMARK    7  A    between atoms: N5_28  and  C1_29 
ROOT
HETATM    1  N1    D T 401       0.675  -2.983  11.333  1.00 24.43    -0.056 NA
HETATM    2  N3    D T 401      -2.318  -0.124  10.778  1.00 24.87    -0.328 N 
HETATM    3  C4    D T 401       0.935  -1.743  11.777  1.00 24.33     0.138 A 
HETATM    4  C5    D T 401      -2.124   1.285  11.218  1.00 24.68     0.162 A 
HETATM    5  C6    D T 401      -0.829   1.569  11.899  1.00 25.06     0.258 A 
HETATM    6  C1    D T 401      -0.500  -3.311  10.731  1.00 24.96     0.752 A 
HETATM    7  N2    D T 401      -1.469  -2.377  10.556  1.00 25.42    -0.041 NA
HETATM    8  C2    D T 401      -1.303  -1.097  10.971  1.00 24.50     0.176 A 
HETATM    9  O1    D T 401      -0.623   2.745  12.291  1.00 25.29    -0.270 OA
HETATM   10  N4    D T 401       0.185   0.587  12.065  1.00 24.77    -0.292 N 
HETATM   11  C11   D T 401       1.453   0.953  12.716  1.00 25.67     0.134 C 
HETATM   12  C3    D T 401      -0.021  -0.739  11.625  1.00 24.44     0.117 A 
ENDROOT
BRANCH   6  13
HETATM   13  N5    D T 401      -0.650  -4.596  10.321  1.00 24.95    -0.057 NA
BRANCH  13  14
HETATM   14  C7    D T 401      -1.139  -5.666  11.010  1.00 25.44     0.122 A 
HETATM   15  C20   D T 401      -0.342  -6.611  11.670  1.00 23.96     0.022 A 
HETATM   16  C19   D T 401      -0.932  -7.686  12.345  1.00 24.92     0.006 A 
HETATM   17  C18   D T 401      -2.323  -7.847  12.380  1.00 25.62     0.060 A 
HETATM   18  C17   D T 401      -3.152  -6.933  11.732  1.00 25.49     0.030 A 
HETATM   19  C16   D T 401      -2.618  -5.846  11.044  1.00 24.16     0.113 A 
BRANCH  17  20
HETATM   20  C21   D T 401      -2.959  -9.006  13.098  1.00 26.92     0.275 C 
HETATM   21  O2    D T 401      -4.130  -8.898  13.429  1.00 30.54    -0.266 OA
HETATM   22  N6    D T 401      -2.252 -10.107  13.361  1.00 31.16    -0.236 NA
BRANCH  22  23
HETATM   23  C22   D T 401      -2.749 -11.151  14.243  1.00 34.88     0.111 C 
HETATM   24  C29   D T 401      -3.151 -12.396  13.456  1.00 36.76     0.048 C 
HETATM   25  C28   D T 401      -3.754 -13.447  14.390  1.00 38.21     0.099 C 
HETATM   26  N7    D T 401      -2.788 -13.679  15.465  1.00 37.76    -0.367 N 
HETATM   27  C24   D T 401      -2.260 -12.572  16.265  1.00 37.52     0.099 C 
HETATM   28  C30   D T 401      -2.351 -15.039  15.758  1.00 36.85     0.121 C 
HETATM   29  C23   D T 401      -1.699 -11.545  15.281  1.00 35.87     0.048 C 
ENDBRANCH  22  23
ENDBRANCH  17  20
BRANCH  19  30
HETATM   30  O3    D T 401      -3.436  -4.942  10.411  1.00 24.11    -0.327 OA
HETATM   31  C31   D T 401      -4.843  -4.910  10.656  1.00 17.70     0.181 C 
ENDBRANCH  19  30
ENDBRANCH  13  14
ENDBRANCH   6  13
BRANCH   2  32
HETATM   32  C8    D T 401      -3.570  -0.610  10.139  1.00 24.12     0.083 C 
HETATM   33  C15   D T 401      -4.146   0.258   9.025  1.00 23.24     0.022 C 
HETATM   34  C14   D T 401      -5.648  -0.026   9.024  1.00 24.93     0.002 C 
HETATM   35  C13   D T 401      -6.019  -0.490  10.455  1.00 23.09     0.002 C 
HETATM   36  C12   D T 401      -4.699  -0.886  11.139  1.00 23.56     0.022 C 
ENDBRANCH   2  32
BRANCH   4  37
HETATM   37  C9    D T 401      -2.139   2.233  10.004  1.00 25.78     0.032 C 
HETATM   38  C10   D T 401      -1.070   1.906   8.974  1.00 24.04     0.003 C 
ENDBRANCH   4  37
TORSDOF 7
ENDMDL
MODEL 5
REMARK VINA RESULT:    -8.374      2.866      5.551
REMARK INTER + INTRA:         -13.108
REMARK INTER:                 -11.972
REMARK INTRA:                  -1.136
REMARK UNBOUND:                -1.307
REMARK  7 active torsions:
REMARK  status: ('A' for Active; 'I' for Inactive)
REMARK    1  A    between atoms: N3_2  and  C8_7 
REMARK    2  A    between atoms: C5_4  and  C9_34 
REMARK    3  A    between atoms: C7_6  and  N5_28 
REMARK       I    between atoms: C21_13  and  N6_18 
REMARK    4  A    between atoms: C21_13  and  C18_23 
REMARK    5  A    between atoms: C22_14  and  N6_18 
REMARK    6  A    between atoms: C16_24  and  O3_25 
REMARK    7  A    between atoms: N5_28  and  C1_29 
ROOT
HETATM    1  N1    D T 401      -3.843  -3.819  11.312  1.00 24.43    -0.056 NA
HETATM    2  N3    D T 401      -3.076   0.081  10.035  1.00 24.87    -0.328 N 
HETATM    3  C4    D T 401      -4.822  -3.205  10.629  1.00 24.33     0.138 A 
HETATM    4  C5    D T 401      -4.100   0.859   9.285  1.00 24.68     0.162 A 
HETATM    5  C6    D T 401      -5.367   0.130   8.993  1.00 25.06     0.258 A 
HETATM    6  C1    D T 401      -2.653  -3.218  11.584  1.00 24.96     0.752 A 
HETATM    7  N2    D T 401      -2.410  -1.951  11.163  1.00 25.42    -0.041 NA
HETATM    8  C2    D T 401      -3.334  -1.246  10.464  1.00 24.50     0.176 A 
HETATM    9  O1    D T 401      -6.260   0.746   8.358  1.00 25.29    -0.270 OA
HETATM   10  N4    D T 401      -5.618  -1.192   9.449  1.00 24.77    -0.292 N 
HETATM   11  C11   D T 401      -6.908  -1.833   9.152  1.00 25.67     0.134 C 
HETATM   12  C3    D T 401      -4.632  -1.901  10.171  1.00 24.44     0.117 A 
ENDROOT
BRANCH   6  13
HETATM   13  N5    D T 401      -1.740  -3.938  12.283  1.00 24.95    -0.057 NA
BRANCH  13  14
HETATM   14  C7    D T 401      -1.378  -5.244  12.136  1.00 25.44     0.122 A 
HETATM   15  C20   D T 401      -2.235  -6.329  12.360  1.00 23.96     0.022 A 
HETATM   16  C19   D T 401      -1.773  -7.640  12.193  1.00 24.92     0.006 A 
HETATM   17  C18   D T 401      -0.454  -7.902  11.802  1.00 25.62     0.060 A 
HETATM   18  C17   D T 401       0.432  -6.852  11.574  1.00 25.49     0.030 A 
HETATM   19  C16   D T 401       0.027  -5.528  11.726  1.00 24.16     0.113 A 
BRANCH  17  20
HETATM   20  C21   D T 401       0.046  -9.311  11.630  1.00 26.92     0.275 C 
HETATM   21  O2    D T 401      -0.550 -10.035  10.848  1.00 30.54    -0.266 OA
HETATM   22  N6    D T 401       1.105  -9.740  12.319  1.00 31.16    -0.236 NA
BRANCH  22  23
HETATM   23  C22   D T 401       1.482 -11.144  12.358  1.00 34.88     0.111 C 
HETATM   24  C29   D T 401       2.989 -11.307  12.549  1.00 36.76     0.048 C 
HETATM   25  C28   D T 401       3.376 -12.786  12.498  1.00 38.21     0.099 C 
HETATM   26  N7    D T 401       2.548 -13.488  13.480  1.00 37.76    -0.367 N 
HETATM   27  C24   D T 401       1.089 -13.373  13.463  1.00 37.52     0.099 C 
HETATM   28  C30   D T 401       3.184 -14.329  14.487  1.00 36.85     0.121 C 
HETATM   29  C23   D T 401       0.763 -11.880  13.488  1.00 35.87     0.048 C 
ENDBRANCH  22  23
ENDBRANCH  17  20
BRANCH  19  30
HETATM   30  O3    D T 401       0.898  -4.492  11.495  1.00 24.11    -0.327 OA
HETATM   31  C31   D T 401       1.222  -4.071  10.168  1.00 17.70     0.181 C 
ENDBRANCH  19  30
ENDBRANCH  13  14
ENDBRANCH   6  13
BRANCH   2  32
HETATM   32  C8    D T 401      -1.728   0.619  10.362  1.00 24.12     0.083 C 
HETATM   33  C15   D T 401      -1.635   1.522  11.587  1.00 23.24     0.022 C 
HETATM   34  C14   D T 401      -0.438   2.438  11.327  1.00 24.93     0.002 C 
HETATM   35  C13   D T 401      -0.270   2.531   9.790  1.00 23.09     0.002 C 
HETATM   36  C12   D T 401      -1.065   1.357   9.193  1.00 23.56     0.022 C 
ENDBRANCH   2  32
BRANCH   4  37
HETATM   37  C9    D T 401      -4.541   2.091  10.099  1.00 25.78     0.032 C 
HETATM   38  C10   D T 401      -4.352   3.402   9.353  1.00 24.04     0.003 C 
ENDBRANCH   4  37
TORSDOF 7
ENDMDL
MODEL 6
REMARK VINA RESULT:    -8.344      3.033      5.695
REMARK INTER + INTRA:         -13.065
REMARK INTER:                 -12.264
REMARK INTRA:                  -0.801
REMARK UNBOUND:                -1.307
REMARK  7 active torsions:
REMARK  status: ('A' for Active; 'I' for Inactive)
REMARK    1  A    between atoms: N3_2  and  C8_7 
REMARK    2  A    between atoms: C5_4  and  C9_34 
REMARK    3  A    between atoms: C7_6  and  N5_28 
REMARK       I    between atoms: C21_13  and  N6_18 
REMARK    4  A    between atoms: C21_13  and  C18_23 
REMARK    5  A    between atoms: C22_14  and  N6_18 
REMARK    6  A    between atoms: C16_24  and  O3_25 
REMARK    7  A    between atoms: N5_28  and  C1_29 
ROOT
HETATM    1  N1    D T 401      -3.846  -4.302  11.269  1.00 24.43    -0.056 NA
HETATM    2  N3    D T 401      -2.794  -0.447  10.061  1.00 24.87    -0.328 N 
HETATM    3  C4    D T 401      -4.799  -3.581  10.657  1.00 24.33     0.138 A 
HETATM    4  C5    D T 401      -3.781   0.443   9.389  1.00 24.68     0.162 A 
HETATM    5  C6    D T 401      -5.122  -0.160   9.145  1.00 25.06     0.258 A 
HETATM    6  C1    D T 401      -2.594  -3.819  11.492  1.00 24.96     0.752 A 
HETATM    7  N2    D T 401      -2.259  -2.565  11.094  1.00 25.42    -0.041 NA
HETATM    8  C2    D T 401      -3.150  -1.759  10.466  1.00 24.50     0.176 A 
HETATM    9  O1    D T 401      -5.987   0.554   8.577  1.00 25.29    -0.270 OA
HETATM   10  N4    D T 401      -5.468  -1.468   9.578  1.00 24.77    -0.292 N 
HETATM   11  C11   D T 401      -6.825  -1.982   9.333  1.00 25.67     0.134 C 
HETATM   12  C3    D T 401      -4.515  -2.285  10.226  1.00 24.44     0.117 A 
ENDROOT
BRANCH   6  13
HETATM   13  N5    D T 401      -1.715  -4.639  12.121  1.00 24.95    -0.057 NA
BRANCH  13  14
HETATM   14  C7    D T 401      -1.605  -5.997  12.052  1.00 25.44     0.122 A 
HETATM   15  C20   D T 401      -2.670  -6.885  12.251  1.00 23.96     0.022 A 
HETATM   16  C19   D T 401      -2.460  -8.267  12.170  1.00 24.92     0.006 A 
HETATM   17  C18   D T 401      -1.194  -8.796  11.892  1.00 25.62     0.060 A 
HETATM   18  C17   D T 401      -0.107  -7.947  11.693  1.00 25.49     0.030 A 
HETATM   19  C16   D T 401      -0.257  -6.564  11.763  1.00 24.16     0.113 A 
BRANCH  17  20
HETATM   20  C21   D T 401      -0.966 -10.281  11.813  1.00 26.92     0.275 C 
HETATM   21  O2    D T 401      -0.330 -10.710  10.862  1.00 30.54    -0.266 OA
HETATM   22  N6    D T 401      -1.452 -11.090  12.757  1.00 31.16    -0.236 NA
BRANCH  22  23
HETATM   23  C22   D T 401      -1.455 -12.537  12.607  1.00 34.88     0.111 C 
HETATM   24  C29   D T 401      -0.530 -13.200  13.625  1.00 36.76     0.048 C 
HETATM   25  C28   D T 401      -0.477 -14.711  13.394  1.00 38.21     0.099 C 
HETATM   26  N7    D T 401      -1.857 -15.201  13.399  1.00 37.76    -0.367 N 
HETATM   27  C24   D T 401      -2.873 -14.616  12.523  1.00 37.52     0.099 C 
HETATM   28  C30   D T 401      -2.225 -16.301  14.281  1.00 36.85     0.121 C 
HETATM   29  C23   D T 401      -2.861 -13.108  12.777  1.00 35.87     0.048 C 
ENDBRANCH  22  23
ENDBRANCH  17  20
BRANCH  19  30
HETATM   30  O3    D T 401       0.813  -5.727  11.561  1.00 24.11    -0.327 OA
HETATM   31  C31   D T 401       2.138  -6.106  11.940  1.00 17.70     0.181 C 
ENDBRANCH  19  30
ENDBRANCH  13  14
ENDBRANCH   6  13
BRANCH   2  32
HETATM   32  C8    D T 401      -1.388  -0.042  10.329  1.00 24.12     0.083 C 
HETATM   33  C15   D T 401      -1.154   0.831  11.557  1.00 23.24     0.022 C 
HETATM   34  C14   D T 401       0.111   1.634  11.249  1.00 24.93     0.002 C 
HETATM   35  C13   D T 401       0.216   1.733   9.707  1.00 23.09     0.002 C 
HETATM   36  C12   D T 401      -0.713   0.647   9.137  1.00 23.56     0.022 C 
ENDBRANCH   2  32
BRANCH   4  37
HETATM   37  C9    D T 401      -4.066   1.682  10.258  1.00 25.78     0.032 C 
HETATM   38  C10   D T 401      -4.736   1.346  11.581  1.00 24.04     0.003 C 
ENDBRANCH   4  37
TORSDOF 7
ENDMDL
MODEL 7
REMARK VINA RESULT:    -8.211      3.996     10.619
REMARK INTER + INTRA:         -12.878
REMARK INTER:                 -11.467
REMARK INTRA:                  -1.411
REMARK UNBOUND:                -1.307
REMARK  7 active torsions:
REMARK  status: ('A' for Active; 'I' for Inactive)
REMARK    1  A    between atoms: N3_2  and  C8_7 
REMARK    2  A    between atoms: C5_4  and  C9_34 
REMARK    3  A    between atoms: C7_6  and  N5_28 
REMARK       I    between atoms: C21_13  and  N6_18 
REMARK    4  A    between atoms: C21_13  and  C18_23 
REMARK    5  A    between atoms: C22_14  and  N6_18 
REMARK    6  A    between atoms: C16_24  and  O3_25 
REMARK    7  A    between atoms: N5_28  and  C1_29 
ROOT
HETATM    1  N1    D T 401       1.540  -7.603  12.720  1.00 24.43    -0.056 NA
HETATM    2  N3    D T 401      -0.138 -10.852  14.736  1.00 24.87    -0.328 N 
HETATM    3  C4    D T 401       2.231  -8.087  13.764  1.00 24.33     0.138 A 
HETATM    4  C5    D T 401       0.538 -11.454  15.918  1.00 24.68     0.162 A 
HETATM    5  C6    D T 401       1.851 -10.849  16.279  1.00 25.06     0.258 A 
HETATM    6  C1    D T 401       0.351  -8.131  12.323  1.00 24.96     0.752 A 
HETATM    7  N2    D T 401      -0.187  -9.189  12.982  1.00 25.42    -0.041 NA
HETATM    8  C2    D T 401       0.435  -9.751  14.048  1.00 24.50     0.176 A 
HETATM    9  O1    D T 401       2.460 -11.328  17.269  1.00 25.29    -0.270 OA
HETATM   10  N4    D T 401       2.400  -9.732  15.592  1.00 24.77    -0.292 N 
HETATM   11  C11   D T 401       3.686  -9.167  16.030  1.00 25.67     0.134 C 
HETATM   12  C3    D T 401       1.729  -9.173  14.482  1.00 24.44     0.117 A 
ENDROOT
BRANCH   6  13
HETATM   13  N5    D T 401      -0.258  -7.557  11.254  1.00 24.95    -0.057 NA
BRANCH  13  14
HETATM   14  C7    D T 401      -1.049  -6.447  11.210  1.00 25.44     0.122 A 
HETATM   15  C20   D T 401      -0.563  -5.134  11.165  1.00 23.96     0.022 A 
HETATM   16  C19   D T 401      -1.453  -4.053  11.131  1.00 24.92     0.006 A 
HETATM   17  C18   D T 401      -2.839  -4.251  11.142  1.00 25.62     0.060 A 
HETATM   18  C17   D T 401      -3.364  -5.541  11.192  1.00 25.49     0.030 A 
HETATM   19  C16   D T 401      -2.525  -6.653  11.228  1.00 24.16     0.113 A 
BRANCH  17  20
HETATM   20  C21   D T 401      -3.796  -3.090  11.114  1.00 26.92     0.275 C 
HETATM   21  O2    D T 401      -4.973  -3.316  11.350  1.00 30.54    -0.266 OA
HETATM   22  N6    D T 401      -3.357  -1.861  10.836  1.00 31.16    -0.236 NA
BRANCH  22  23
HETATM   23  C22   D T 401      -4.268  -0.758  10.575  1.00 34.88     0.111 C 
HETATM   24  C29   D T 401      -3.559   0.588  10.709  1.00 36.76     0.048 C 
HETATM   25  C28   D T 401      -4.553   1.736  10.519  1.00 38.21     0.099 C 
HETATM   26  N7    D T 401      -5.232   1.518   9.241  1.00 37.76    -0.367 N 
HETATM   27  C24   D T 401      -5.900   0.250   8.942  1.00 37.52     0.099 C 
HETATM   28  C30   D T 401      -5.257   2.586   8.249  1.00 36.85     0.121 C 
HETATM   29  C23   D T 401      -4.871  -0.857   9.175  1.00 35.87     0.048 C 
ENDBRANCH  22  23
ENDBRANCH  17  20
BRANCH  19  30
HETATM   30  O3    D T 401      -3.042  -7.925  11.271  1.00 24.11    -0.327 OA
HETATM   31  C31   D T 401      -3.774  -8.394  12.406  1.00 17.70     0.181 C 
ENDBRANCH  19  30
ENDBRANCH  13  14
ENDBRANCH   6  13
BRANCH   2  32
HETATM   32  C8    D T 401      -1.423 -11.363  14.189  1.00 24.12     0.083 C 
HETATM   33  C15   D T 401      -2.696 -10.864  14.862  1.00 23.24     0.022 C 
HETATM   34  C14   D T 401      -3.734 -11.963  14.636  1.00 24.93     0.002 C 
HETATM   35  C13   D T 401      -2.952 -13.287  14.449  1.00 23.09     0.002 C 
HETATM   36  C12   D T 401      -1.499 -12.894  14.136  1.00 23.56     0.022 C 
ENDBRANCH   2  32
BRANCH   4  37
HETATM   37  C9    D T 401      -0.329 -11.279  17.179  1.00 25.78     0.032 C 
HETATM   38  C10   D T 401      -0.580  -9.823  17.537  1.00 24.04     0.003 C 
ENDBRANCH   4  37
TORSDOF 7
ENDMDL
MODEL 8
REMARK VINA RESULT:    -8.133      2.464      4.865
REMARK INTER + INTRA:         -12.767
REMARK INTER:                 -12.150
REMARK INTRA:                  -0.617
REMARK UNBOUND:                -1.307
REMARK  7 active torsions:
REMARK  status: ('A' for Active; 'I' for Inactive)
REMARK    1  A    between atoms: N3_2  and  C8_7 
REMARK    2  A    between atoms: C5_4  and  C9_34 
REMARK    3  A    between atoms: C7_6  and  N5_28 
REMARK       I    between atoms: C21_13  and  N6_18 
REMARK    4  A    between atoms: C21_13  and  C18_23 
REMARK    5  A    between atoms: C22_14  and  N6_18 
REMARK    6  A    between atoms: C16_24  and  O3_25 
REMARK    7  A    between atoms: N5_28  and  C1_29 
ROOT
HETATM    1  N1    D T 401       1.444  -2.473   9.690  1.00 24.43    -0.056 NA
HETATM    2  N3    D T 401      -2.089  -0.573  10.849  1.00 24.87    -0.328 N 
HETATM    3  C4    D T 401       1.478  -1.133   9.770  1.00 24.33     0.138 A 
HETATM    4  C5    D T 401      -2.164   0.910  10.953  1.00 24.68     0.162 A 
HETATM    5  C6    D T 401      -0.894   1.635  10.665  1.00 25.06     0.258 A 
HETATM    6  C1    D T 401       0.325  -3.193   9.969  1.00 24.96     0.752 A 
HETATM    7  N2    D T 401      -0.819  -2.569  10.348  1.00 25.42    -0.041 NA
HETATM    8  C2    D T 401      -0.887  -1.219  10.460  1.00 24.50     0.176 A 
HETATM    9  O1    D T 401      -0.910   2.890  10.744  1.00 25.29    -0.270 OA
HETATM   10  N4    D T 401       0.295   0.974  10.256  1.00 24.77    -0.292 N 
HETATM   11  C11   D T 401       1.500   1.762   9.954  1.00 25.67     0.134 C 
HETATM   12  C3    D T 401       0.333  -0.434  10.153  1.00 24.44     0.117 A 
ENDROOT
BRANCH   6  13
HETATM   13  N5    D T 401       0.409  -4.543   9.852  1.00 24.95    -0.057 NA
BRANCH  13  14
HETATM   14  C7    D T 401      -0.346  -5.507  10.452  1.00 25.44     0.122 A 
HETATM   15  C20   D T 401      -1.587  -5.947   9.973  1.00 23.96     0.022 A 
HETATM   16  C19   D T 401      -2.298  -6.937  10.662  1.00 24.92     0.006 A 
HETATM   17  C18   D T 401      -1.796  -7.508  11.837  1.00 25.62     0.060 A 
HETATM   18  C17   D T 401      -0.569  -7.095  12.351  1.00 25.49     0.030 A 
HETATM   19  C16   D T 401       0.181  -6.113  11.707  1.00 24.16     0.113 A 
BRANCH  17  20
HETATM   20  C21   D T 401      -2.564  -8.566  12.583  1.00 26.92     0.275 C 
HETATM   21  O2    D T 401      -3.769  -8.412  12.710  1.00 30.54    -0.266 OA
HETATM   22  N6    D T 401      -1.933  -9.630  13.085  1.00 31.16    -0.236 NA
BRANCH  22  23
HETATM   23  C22   D T 401      -2.587 -10.554  13.999  1.00 34.88     0.111 C 
HETATM   24  C29   D T 401      -3.164 -11.754  13.252  1.00 36.76     0.048 C 
HETATM   25  C28   D T 401      -3.923 -12.668  14.216  1.00 38.21     0.099 C 
HETATM   26  N7    D T 401      -3.011 -13.000  15.312  1.00 37.76    -0.367 N 
HETATM   27  C24   D T 401      -2.331 -11.953  16.077  1.00 37.52     0.099 C 
HETATM   28  C30   D T 401      -2.784 -14.397  15.660  1.00 36.85     0.121 C 
HETATM   29  C23   D T 401      -1.615 -11.059  15.064  1.00 35.87     0.048 C 
ENDBRANCH  22  23
ENDBRANCH  17  20
BRANCH  19  30
HETATM   30  O3    D T 401       1.394  -5.710  12.209  1.00 24.11    -0.327 OA
HETATM   31  C31   D T 401       2.489  -6.620  12.337  1.00 17.70     0.181 C 
ENDBRANCH  19  30
ENDBRANCH  13  14
ENDBRANCH   6  13
BRANCH   2  32
HETATM   32  C8    D T 401      -3.236  -1.468  11.161  1.00 24.12     0.083 C 
HETATM   33  C15   D T 401      -2.898  -2.806  11.808  1.00 23.24     0.022 C 
HETATM   34  C14   D T 401      -4.033  -3.749  11.407  1.00 24.93     0.002 C 
HETATM   35  C13   D T 401      -4.621  -3.206  10.081  1.00 23.09     0.002 C 
HETATM   36  C12   D T 401      -4.135  -1.752   9.952  1.00 23.56     0.022 C 
ENDBRANCH   2  32
BRANCH   4  37
HETATM   37  C9    D T 401      -3.170   1.469   9.929  1.00 25.78     0.032 C 
HETATM   38  C10   D T 401      -4.494   1.881  10.552  1.00 24.04     0.003 C 
ENDBRANCH   4  37
TORSDOF 7
ENDMDL
MODEL 9
REMARK VINA RESULT:    -8.065      3.327     11.019
REMARK INTER + INTRA:         -12.672
REMARK INTER:                 -11.423
REMARK INTRA:                  -1.249
REMARK UNBOUND:                -1.307
REMARK  7 active torsions:
REMARK  status: ('A' for Active; 'I' for Inactive)
REMARK    1  A    between atoms: N3_2  and  C8_7 
REMARK    2  A    between atoms: C5_4  and  C9_34 
REMARK    3  A    between atoms: C7_6  and  N5_28 
REMARK       I    between atoms: C21_13  and  N6_18 
REMARK    4  A    between atoms: C21_13  and  C18_23 
REMARK    5  A    between atoms: C22_14  and  N6_18 
REMARK    6  A    between atoms: C16_24  and  O3_25 
REMARK    7  A    between atoms: N5_28  and  C1_29 
ROOT
HETATM    1  N1    D T 401      -0.392  -9.128  10.764  1.00 24.43    -0.056 NA
HETATM    2  N3    D T 401      -0.233 -10.826  14.575  1.00 24.87    -0.328 N 
HETATM    3  C4    D T 401      -0.542 -10.460  10.837  1.00 24.33     0.138 A 
HETATM    4  C5    D T 401      -0.371 -12.296  14.767  1.00 24.68     0.162 A 
HETATM    5  C6    D T 401      -0.614 -13.082  13.524  1.00 25.06     0.258 A 
HETATM    6  C1    D T 401      -0.197  -8.353  11.864  1.00 24.96     0.752 A 
HETATM    7  N2    D T 401      -0.149  -8.912  13.101  1.00 25.42    -0.041 NA
HETATM    8  C2    D T 401      -0.292 -10.249  13.280  1.00 24.50     0.176 A 
HETATM    9  O1    D T 401      -0.740 -14.327  13.638  1.00 25.29    -0.270 OA
HETATM   10  N4    D T 401      -0.649 -12.489  12.232  1.00 24.77    -0.292 N 
HETATM   11  C11   D T 401      -0.859 -13.337  11.047  1.00 25.67     0.134 C 
HETATM   12  C3    D T 401      -0.501 -11.093  12.080  1.00 24.44     0.117 A 
ENDROOT
BRANCH   6  13
HETATM   13  N5    D T 401      -0.056  -7.018  11.667  1.00 24.95    -0.057 NA
BRANCH  13  14
HETATM   14  C7    D T 401      -1.020  -6.059  11.556  1.00 25.44     0.122 A 
HETATM   15  C20   D T 401      -2.393  -6.303  11.682  1.00 23.96     0.022 A 
HETATM   16  C19   D T 401      -3.312  -5.257  11.543  1.00 24.92     0.006 A 
HETATM   17  C18   D T 401      -2.890  -3.948  11.274  1.00 25.62     0.060 A 
HETATM   18  C17   D T 401      -1.533  -3.664  11.136  1.00 25.49     0.030 A 
HETATM   19  C16   D T 401      -0.575  -4.667  11.264  1.00 24.16     0.113 A 
BRANCH  17  20
HETATM   20  C21   D T 401      -3.877  -2.824  11.116  1.00 26.92     0.275 C 
HETATM   21  O2    D T 401      -5.066  -3.097  11.183  1.00 30.54    -0.266 OA
HETATM   22  N6    D T 401      -3.451  -1.576  10.907  1.00 31.16    -0.236 NA
BRANCH  22  23
HETATM   23  C22   D T 401      -4.359  -0.506  10.526  1.00 34.88     0.111 C 
HETATM   24  C29   D T 401      -3.659   0.851  10.560  1.00 36.76     0.048 C 
HETATM   25  C28   D T 401      -4.651   1.971  10.242  1.00 38.21     0.099 C 
HETATM   26  N7    D T 401      -5.293   1.637   8.969  1.00 37.76    -0.367 N 
HETATM   27  C24   D T 401      -5.947   0.344   8.765  1.00 37.52     0.099 C 
HETATM   28  C30   D T 401      -5.294   2.614   7.887  1.00 36.85     0.121 C 
HETATM   29  C23   D T 401      -4.921  -0.732   9.123  1.00 35.87     0.048 C 
ENDBRANCH  22  23
ENDBRANCH  17  20
BRANCH  19  30
HETATM   30  O3    D T 401       0.763  -4.385  11.133  1.00 24.11    -0.327 OA
HETATM   31  C31   D T 401       1.280  -3.748   9.962  1.00 17.70     0.181 C 
ENDBRANCH  19  30
ENDBRANCH  13  14
ENDBRANCH   6  13
BRANCH   2  32
HETATM   32  C8    D T 401      -0.050  -9.875  15.703  1.00 24.12     0.083 C 
HETATM   33  C15   D T 401       1.375  -9.692  16.214  1.00 23.24     0.022 C 
HETATM   34  C14   D T 401       1.232  -9.279  17.680  1.00 24.93     0.002 C 
HETATM   35  C13   D T 401      -0.125  -9.841  18.174  1.00 23.09     0.002 C 
HETATM   36  C12   D T 401      -0.938 -10.185  16.914  1.00 23.56     0.022 C 
ENDBRANCH   2  32
BRANCH   4  37
HETATM   37  C9    D T 401       0.928 -12.886  15.349  1.00 25.78     0.032 C 
HETATM   38  C10   D T 401       0.753 -13.457  16.747  1.00 24.04     0.003 C 
ENDBRANCH   4  37
TORSDOF 7
ENDMDL
