MODEL 1
REMARK VINA RESULT:    -7.033      0.000      0.000
REMARK INTER + INTRA:          -8.329
REMARK INTER:                  -7.855
REMARK INTRA:                  -0.474
REMARK UNBOUND:                -0.474
REMARK  2 active torsions:
REMARK  status: ('A' for Active; 'I' for Inactive)
REMARK    1  A    between atoms: C4_4  and  C7_7 
REMARK    2  A    between atoms: C5_5  and  C15_15 
ROOT
HETATM    1  N1    D T 201      -8.138   1.129   1.755  1.00  5.16    -0.037 NA
HETATM    2  C2    D T 201      -8.577   2.059   0.868  1.00  5.00     0.769 C 
HETATM    3  C3    D T 201      -6.932   1.383   2.343  1.00  4.75     0.203 C 
HETATM    4  C4    D T 201      -6.145   2.543   2.107  1.00  4.81     0.052 C 
HETATM    5  C5    D T 201      -6.642   3.418   1.178  1.00  4.85     0.081 C 
HETATM    6  N6    D T 201      -7.796   3.133   0.513  1.00  5.33    -0.062 NA
HETATM    7  N13   D T 201      -6.497   0.433   3.229  1.00  5.45    -0.126 N 
HETATM    8  N14   D T 201      -9.712   1.928   0.283  1.00  6.07     0.062 N 
ENDROOT
BRANCH   4   9
HETATM    9  C7    D T 201      -4.918   2.776   2.865  1.00  5.93     0.004 A 
HETATM   10  C8    D T 201      -3.668   2.240   2.481  1.00  6.93     0.001 A 
HETATM   11  C9    D T 201      -2.512   2.438   3.287  1.00  8.90     0.011 A 
HETATM   12  C10   D T 201      -2.694   3.169   4.502  1.00  8.73     0.058 A 
HETATM   13  C11   D T 201      -3.932   3.674   4.970  1.00  7.65     0.011 A 
HETATM   14 CL1    D T 201      -1.267   3.428   5.471  1.00 14.54    -0.082 Cl
HETATM   15  C12   D T 201      -5.005   3.490   4.082  1.00  6.02     0.001 A 
ENDBRANCH   4   9
BRANCH   5  16
HETATM   16  C15   D T 201      -5.950   4.698   0.696  1.00  5.65     0.047 C 
HETATM   17  C16   D T 201      -4.919   4.347  -0.404  1.00  8.46     0.007 C 
ENDBRANCH   5  16
TORSDOF 2
ENDMDL
MODEL 2
REMARK VINA RESULT:    -6.775      2.749      4.772
REMARK INTER + INTRA:          -8.041
REMARK INTER:                  -7.658
REMARK INTRA:                  -0.383
REMARK UNBOUND:                -0.474
REMARK  2 active torsions:
REMARK  status: ('A' for Active; 'I' for Inactive)
REMARK    1  A    between atoms: C4_4  and  C7_7 
REMARK    2  A    between atoms: C5_5  and  C15_15 
ROOT
HETATM    1  N1    D T 201      -7.050   1.899   1.870  1.00  5.16    -0.037 NA
HETATM    2  C2    D T 201      -6.154   1.355   2.732  1.00  5.00     0.769 C 
HETATM    3  C3    D T 201      -6.787   3.173   1.456  1.00  4.75     0.203 C 
HETATM    4  C4    D T 201      -5.648   3.932   1.843  1.00  4.81     0.052 C 
HETATM    5  C5    D T 201      -4.808   3.324   2.738  1.00  4.85     0.081 C 
HETATM    6  N6    D T 201      -5.107   2.091   3.234  1.00  5.33    -0.062 NA
HETATM    7  N13   D T 201      -7.703   3.714   0.593  1.00  5.45    -0.126 N 
HETATM    8  N14   D T 201      -6.296   0.152   3.159  1.00  6.07     0.062 N 
ENDROOT
BRANCH   4   9
HETATM    9  C7    D T 201      -5.399   5.249   1.263  1.00  5.93     0.004 A 
HETATM   10  C8    D T 201      -5.951   6.436   1.794  1.00  6.93     0.001 A 
HETATM   11  C9    D T 201      -5.734   7.689   1.156  1.00  8.90     0.011 A 
HETATM   12  C10   D T 201      -4.967   7.672  -0.051  1.00  8.73     0.058 A 
HETATM   13  C11   D T 201      -4.443   6.506  -0.664  1.00  7.65     0.011 A 
HETATM   14 CL1    D T 201      -4.686   9.214  -0.813  1.00 14.54    -0.082 Cl
HETATM   15  C12   D T 201      -4.649   5.325   0.066  1.00  6.02     0.001 A 
ENDBRANCH   4   9
BRANCH   5  16
HETATM   16  C15   D T 201      -3.559   3.956   3.363  1.00  5.65     0.047 C 
HETATM   17  C16   D T 201      -2.707   2.857   4.043  1.00  8.46     0.007 C 
ENDBRANCH   5  16
TORSDOF 2
ENDMDL
MODEL 3
REMARK VINA RESULT:    -6.744      2.610      4.305
REMARK INTER + INTRA:          -8.007
REMARK INTER:                  -7.503
REMARK INTRA:                  -0.504
REMARK UNBOUND:                -0.474
REMARK  2 active torsions:
REMARK  status: ('A' for Active; 'I' for Inactive)
REMARK    1  A    between atoms: C4_4  and  C7_7 
REMARK    2  A    between atoms: C5_5  and  C15_15 
ROOT
HETATM    1  N1    D T 201      -7.836   2.143   1.158  1.00  5.16    -0.037 NA
HETATM    2  C2    D T 201      -6.956   1.176   1.525  1.00  5.00     0.769 C 
HETATM    3  C3    D T 201      -7.303   3.377   0.914  1.00  4.75     0.203 C 
HETATM    4  C4    D T 201      -5.919   3.691   0.992  1.00  4.81     0.052 C 
HETATM    5  C5    D T 201      -5.101   2.669   1.396  1.00  4.85     0.081 C 
HETATM    6  N6    D T 201      -5.628   1.460   1.736  1.00  5.33    -0.062 NA
HETATM    7  N13   D T 201      -8.202   4.345   0.553  1.00  5.45    -0.126 N 
HETATM    8  N14   D T 201      -7.353  -0.024   1.750  1.00  6.07     0.062 N 
ENDROOT
BRANCH   4   9
HETATM    9  C7    D T 201      -5.433   5.014   0.607  1.00  5.93     0.004 A 
HETATM   10  C8    D T 201      -5.004   5.319  -0.704  1.00  6.93     0.001 A 
HETATM   11  C9    D T 201      -4.475   6.602  -1.017  1.00  8.90     0.011 A 
HETATM   12  C10   D T 201      -4.377   7.537   0.061  1.00  8.73     0.058 A 
HETATM   13  C11   D T 201      -4.731   7.267   1.406  1.00  7.65     0.011 A 
HETATM   14 CL1    D T 201      -3.751   9.115  -0.337  1.00 14.54    -0.082 Cl
HETATM   15  C12   D T 201      -5.302   6.000   1.611  1.00  6.02     0.001 A 
ENDBRANCH   4   9
BRANCH   5  16
HETATM   16  C15   D T 201      -3.590   2.772   1.629  1.00  5.65     0.047 C 
HETATM   17  C16   D T 201      -3.295   2.738   3.148  1.00  8.46     0.007 C 
ENDBRANCH   5  16
TORSDOF 2
ENDMDL
MODEL 4
REMARK VINA RESULT:    -6.631      3.557      5.507
REMARK INTER + INTRA:          -7.881
REMARK INTER:                  -7.621
REMARK INTRA:                  -0.260
REMARK UNBOUND:                -0.474
REMARK  2 active torsions:
REMARK  status: ('A' for Active; 'I' for Inactive)
REMARK    1  A    between atoms: C4_4  and  C7_7 
REMARK    2  A    between atoms: C5_5  and  C15_15 
ROOT
HETATM    1  N1    D T 201      -5.113   2.975   4.316  1.00  5.16    -0.037 NA
HETATM    2  C2    D T 201      -4.222   3.682   3.574  1.00  5.00     0.769 C 
HETATM    3  C3    D T 201      -6.148   2.408   3.629  1.00  4.75     0.203 C 
HETATM    4  C4    D T 201      -6.326   2.489   2.221  1.00  4.81     0.052 C 
HETATM    5  C5    D T 201      -5.402   3.244   1.549  1.00  4.85     0.081 C 
HETATM    6  N6    D T 201      -4.419   3.895   2.231  1.00  5.33    -0.062 NA
HETATM    7  N13   D T 201      -7.044   1.704   4.389  1.00  5.45    -0.126 N 
HETATM    8  N14   D T 201      -3.198   4.231   4.121  1.00  6.07     0.062 N 
ENDROOT
BRANCH   4   9
HETATM    9  C7    D T 201      -7.407   1.757   1.564  1.00  5.93     0.004 A 
HETATM   10  C8    D T 201      -8.604   2.378   1.143  1.00  6.93     0.001 A 
HETATM   11  C9    D T 201      -9.658   1.613   0.568  1.00  8.90     0.011 A 
HETATM   12  C10   D T 201      -9.450   0.201   0.474  1.00  8.73     0.058 A 
HETATM   13  C11   D T 201      -8.299  -0.483   0.938  1.00  7.65     0.011 A 
HETATM   14 CL1    D T 201     -10.735  -0.725  -0.254  1.00 14.54    -0.082 Cl
HETATM   15  C12   D T 201      -7.285   0.355   1.430  1.00  6.02     0.001 A 
ENDBRANCH   4   9
BRANCH   5  16
HETATM   16  C15   D T 201      -5.416   3.546   0.046  1.00  5.65     0.047 C 
HETATM   17  C16   D T 201      -4.296   4.560  -0.290  1.00  8.46     0.007 C 
ENDBRANCH   5  16
TORSDOF 2
ENDMDL
MODEL 5
REMARK VINA RESULT:    -6.403      4.597      7.058
REMARK INTER + INTRA:          -7.626
REMARK INTER:                  -7.208
REMARK INTRA:                  -0.417
REMARK UNBOUND:                -0.474
REMARK  2 active torsions:
REMARK  status: ('A' for Active; 'I' for Inactive)
REMARK    1  A    between atoms: C4_4  and  C7_7 
REMARK    2  A    between atoms: C5_5  and  C15_15 
ROOT
HETATM    1  N1    D T 201      -6.847   0.734   1.483  1.00  5.16    -0.037 NA
HETATM    2  C2    D T 201      -6.470   2.036   1.561  1.00  5.00     0.769 C 
HETATM    3  C3    D T 201      -8.085   0.499   0.956  1.00  4.75     0.203 C 
HETATM    4  C4    D T 201      -8.965   1.506   0.474  1.00  4.81     0.052 C 
HETATM    5  C5    D T 201      -8.523   2.796   0.616  1.00  4.85     0.081 C 
HETATM    6  N6    D T 201      -7.333   3.052   1.227  1.00  5.33    -0.062 NA
HETATM    7  N13   D T 201      -8.457  -0.818   0.890  1.00  5.45    -0.126 N 
HETATM    8  N14   D T 201      -5.314   2.361   2.015  1.00  6.07     0.062 N 
ENDROOT
BRANCH   4   9
HETATM    9  C7    D T 201     -10.225   1.148  -0.171  1.00  5.93     0.004 A 
HETATM   10  C8    D T 201     -10.338   0.933  -1.563  1.00  6.93     0.001 A 
HETATM   11  C9    D T 201     -11.600   0.651  -2.156  1.00  8.90     0.011 A 
HETATM   12  C10   D T 201     -12.731   0.630  -1.281  1.00  8.73     0.058 A 
HETATM   13  C11   D T 201     -12.689   0.900   0.109  1.00  7.65     0.011 A 
HETATM   14 CL1    D T 201     -14.270   0.260  -2.013  1.00 14.54    -0.082 Cl
HETATM   15  C12   D T 201     -11.396   1.104   0.620  1.00  6.02     0.001 A 
ENDBRANCH   4   9
BRANCH   5  16
HETATM   16  C15   D T 201      -9.312   4.056   0.245  1.00  5.65     0.047 C 
HETATM   17  C16   D T 201      -8.403   5.300   0.396  1.00  8.46     0.007 C 
ENDBRANCH   5  16
TORSDOF 2
ENDMDL
MODEL 6
REMARK VINA RESULT:    -6.233      3.541      4.889
REMARK INTER + INTRA:          -7.436
REMARK INTER:                  -6.951
REMARK INTRA:                  -0.484
REMARK UNBOUND:                -0.474
REMARK  2 active torsions:
REMARK  status: ('A' for Active; 'I' for Inactive)
REMARK    1  A    between atoms: C4_4  and  C7_7 
REMARK    2  A    between atoms: C5_5  and  C15_15 
ROOT
HETATM    1  N1    D T 201      -9.271   7.204   0.513  1.00  5.16    -0.037 NA
HETATM    2  C2    D T 201      -8.924   8.516   0.567  1.00  5.00     0.769 C 
HETATM    3  C3    D T 201      -8.241   6.309   0.543  1.00  4.75     0.203 C 
HETATM    4  C4    D T 201      -6.867   6.659   0.652  1.00  4.81     0.052 C 
HETATM    5  C5    D T 201      -6.597   8.002   0.671  1.00  4.85     0.081 C 
HETATM    6  N6    D T 201      -7.607   8.908   0.545  1.00  5.33    -0.062 NA
HETATM    7  N13   D T 201      -8.604   4.990   0.480  1.00  5.45    -0.126 N 
HETATM    8  N14   D T 201      -9.820   9.435   0.573  1.00  6.07     0.062 N 
ENDROOT
BRANCH   4   9
HETATM    9  C7    D T 201      -5.843   5.625   0.785  1.00  5.93     0.004 A 
HETATM   10  C8    D T 201      -5.221   5.019  -0.329  1.00  6.93     0.001 A 
HETATM   11  C9    D T 201      -4.277   3.968  -0.153  1.00  8.90     0.011 A 
HETATM   12  C10   D T 201      -4.026   3.548   1.191  1.00  8.73     0.058 A 
HETATM   13  C11   D T 201      -4.667   4.075   2.340  1.00  7.65     0.011 A 
HETATM   14 CL1    D T 201      -2.851   2.277   1.400  1.00 14.54    -0.082 Cl
HETATM   15  C12   D T 201      -5.533   5.149   2.079  1.00  6.02     0.001 A 
ENDBRANCH   4   9
BRANCH   5  16
HETATM   16  C15   D T 201      -5.201   8.633   0.708  1.00  5.65     0.047 C 
HETATM   17  C16   D T 201      -4.638   8.732  -0.730  1.00  8.46     0.007 C 
ENDBRANCH   5  16
TORSDOF 2
ENDMDL
MODEL 7
REMARK VINA RESULT:    -6.150      2.764      4.539
REMARK INTER + INTRA:          -7.343
REMARK INTER:                  -6.925
REMARK INTRA:                  -0.417
REMARK UNBOUND:                -0.474
REMARK  2 active torsions:
REMARK  status: ('A' for Active; 'I' for Inactive)
REMARK    1  A    between atoms: C4_4  and  C7_7 
REMARK    2  A    between atoms: C5_5  and  C15_15 
ROOT
HETATM    1  N1    D T 201      -4.842   1.416   2.784  1.00  5.16    -0.037 NA
HETATM    2  C2    D T 201      -6.101   0.926   2.645  1.00  5.00     0.769 C 
HETATM    3  C3    D T 201      -4.595   2.615   2.180  1.00  4.75     0.203 C 
HETATM    4  C4    D T 201      -5.559   3.372   1.458  1.00  4.81     0.052 C 
HETATM    5  C5    D T 201      -6.796   2.796   1.339  1.00  4.85     0.081 C 
HETATM    6  N6    D T 201      -7.030   1.556   1.854  1.00  5.33    -0.062 NA
HETATM    7  N13   D T 201      -3.320   3.094   2.320  1.00  5.45    -0.126 N 
HETATM    8  N14   D T 201      -6.442  -0.181   3.199  1.00  6.07     0.062 N 
ENDROOT
BRANCH   4   9
HETATM    9  C7    D T 201      -5.228   4.697   0.938  1.00  5.93     0.004 A 
HETATM   10  C8    D T 201      -5.440   5.882   1.676  1.00  6.93     0.001 A 
HETATM   11  C9    D T 201      -5.165   7.155   1.104  1.00  8.90     0.011 A 
HETATM   12  C10   D T 201      -4.701   7.165  -0.249  1.00  8.73     0.058 A 
HETATM   13  C11   D T 201      -4.531   6.014  -1.058  1.00  7.65     0.011 A 
HETATM   14 CL1    D T 201      -4.344   8.728  -0.934  1.00 14.54    -0.082 Cl
HETATM   15  C12   D T 201      -4.763   4.799  -0.393  1.00  6.02     0.001 A 
ENDBRANCH   4   9
BRANCH   5  16
HETATM   16  C15   D T 201      -7.978   3.372   0.552  1.00  5.65     0.047 C 
HETATM   17  C16   D T 201      -9.138   2.347   0.532  1.00  8.46     0.007 C 
ENDBRANCH   5  16
TORSDOF 2
ENDMDL
MODEL 8
REMARK VINA RESULT:    -6.050      4.807      7.558
REMARK INTER + INTRA:          -7.231
REMARK INTER:                  -6.783
REMARK INTRA:                  -0.448
REMARK UNBOUND:                -0.474
REMARK  2 active torsions:
REMARK  status: ('A' for Active; 'I' for Inactive)
REMARK    1  A    between atoms: C4_4  and  C7_7 
REMARK    2  A    between atoms: C5_5  and  C15_15 
ROOT
HETATM    1  N1    D T 201      -8.019   4.479   0.908  1.00  5.16    -0.037 NA
HETATM    2  C2    D T 201      -6.939   3.676   1.085  1.00  5.00     0.769 C 
HETATM    3  C3    D T 201      -9.143   3.875   0.423  1.00  4.75     0.203 C 
HETATM    4  C4    D T 201      -9.254   2.489   0.127  1.00  4.81     0.052 C 
HETATM    5  C5    D T 201      -8.113   1.752   0.304  1.00  4.85     0.081 C 
HETATM    6  N6    D T 201      -6.957   2.358   0.696  1.00  5.33    -0.062 NA
HETATM    7  N13   D T 201     -10.223   4.699   0.242  1.00  5.45    -0.126 N 
HETATM    8  N14   D T 201      -5.842   4.141   1.563  1.00  6.07     0.062 N 
ENDROOT
BRANCH   4   9
HETATM    9  C7    D T 201     -10.533   1.916  -0.287  1.00  5.93     0.004 A 
HETATM   10  C8    D T 201     -11.536   1.540   0.635  1.00  6.93     0.001 A 
HETATM   11  C9    D T 201     -12.739   0.924   0.190  1.00  8.90     0.011 A 
HETATM   12  C10   D T 201     -12.856   0.683  -1.215  1.00  8.73     0.058 A 
HETATM   13  C11   D T 201     -11.859   0.980  -2.177  1.00  7.65     0.011 A 
HETATM   14 CL1    D T 201     -14.344  -0.050  -1.754  1.00 14.54    -0.082 Cl
HETATM   15  C12   D T 201     -10.735   1.644  -1.659  1.00  6.02     0.001 A 
ENDBRANCH   4   9
BRANCH   5  16
HETATM   16  C15   D T 201      -7.953   0.262  -0.014  1.00  5.65     0.047 C 
HETATM   17  C16   D T 201      -8.488  -0.581   1.169  1.00  8.46     0.007 C 
ENDBRANCH   5  16
TORSDOF 2
ENDMDL
MODEL 9
REMARK VINA RESULT:    -5.931      6.422      7.943
REMARK INTER + INTRA:          -7.099
REMARK INTER:                  -6.712
REMARK INTRA:                  -0.387
REMARK UNBOUND:                -0.474
REMARK  2 active torsions:
REMARK  status: ('A' for Active; 'I' for Inactive)
REMARK    1  A    between atoms: C4_4  and  C7_7 
REMARK    2  A    between atoms: C5_5  and  C15_15 
ROOT
HETATM    1  N1    D T 201      -7.632   9.706   0.949  1.00  5.16    -0.037 NA
HETATM    2  C2    D T 201      -7.736   8.577   0.201  1.00  5.00     0.769 C 
HETATM    3  C3    D T 201      -6.375  10.223   1.081  1.00  4.75     0.203 C 
HETATM    4  C4    D T 201      -5.208   9.680   0.477  1.00  4.81     0.052 C 
HETATM    5  C5    D T 201      -5.393   8.525  -0.236  1.00  4.85     0.081 C 
HETATM    6  N6    D T 201      -6.623   7.944  -0.298  1.00  5.33    -0.062 NA
HETATM    7  N13   D T 201      -6.282  11.357   1.844  1.00  5.45    -0.126 N 
HETATM    8  N14   D T 201      -8.878   8.028  -0.007  1.00  6.07     0.062 N 
ENDROOT
BRANCH   4   9
HETATM    9  C7    D T 201      -3.924  10.367   0.589  1.00  5.93     0.004 A 
HETATM   10  C8    D T 201      -3.013  10.118   1.640  1.00  6.93     0.001 A 
HETATM   11  C9    D T 201      -1.803  10.859   1.746  1.00  8.90     0.011 A 
HETATM   12  C10   D T 201      -1.583  11.875   0.763  1.00  8.73     0.058 A 
HETATM   13  C11   D T 201      -2.489  12.213  -0.273  1.00  7.65     0.011 A 
HETATM   14 CL1    D T 201      -0.087  12.762   0.886  1.00 14.54    -0.082 Cl
HETATM   15  C12   D T 201      -3.624  11.389  -0.341  1.00  6.02     0.001 A 
ENDBRANCH   4   9
BRANCH   5  16
HETATM   16  C15   D T 201      -4.288   7.709  -0.917  1.00  5.65     0.047 C 
HETATM   17  C16   D T 201      -4.659   6.207  -0.885  1.00  8.46     0.007 C 
ENDBRANCH   5  16
TORSDOF 2
ENDMDL
