MODEL 1
REMARK VINA RESULT:    -8.243      0.000      0.000
REMARK INTER + INTRA:         -13.890
REMARK INTER:                 -12.099
REMARK INTRA:                  -1.791
REMARK UNBOUND:                -1.791
REMARK  8 active torsions:
REMARK  status: ('A' for Active; 'I' for Inactive)
REMARK    1  A    between atoms: C20_8  and  C12_12 
REMARK    2  A    between atoms: C22_10  and  C19_16 
REMARK       I    between atoms: C22_10  and  N25_19 
REMARK    3  A    between atoms: C12_12  and  C18_15 
REMARK    4  A    between atoms: N25_19  and  C37_23 
REMARK    5  A    between atoms: C37_23  and  C38_24 
REMARK    6  A    between atoms: C38_24  and  N4_25 
REMARK    7  A    between atoms: N4_25  and  C39_26 
REMARK    8  A    between atoms: N4_25  and  C40_27 
ROOT
HETATM    1  C4    D T 701      -0.442  -7.060  11.559  1.00 38.18     0.052 C 
HETATM    2  C13   D T 701      -1.210  -3.274  11.572  1.00 38.14     0.002 A 
HETATM    3  C3    D T 701      -1.013  -1.776  11.566  1.00 38.74     0.033 C 
HETATM    4  C14   D T 701      -1.025  -5.669  11.572  1.00 38.01     0.064 A 
HETATM    5  C18   D T 701      -2.489  -4.017  11.627  1.00 36.77     0.077 A 
HETATM    6  C19   D T 701      -0.247  -4.399  11.540  1.00 40.17     0.069 A 
HETATM    7  N23   D T 701      -2.342  -5.362  11.612  1.00 37.14    -0.250 NA
ENDROOT
BRANCH   5   8
HETATM    8  C12   D T 701      -3.822  -3.361  11.670  1.00 34.67     0.024 C 
BRANCH   8   9
HETATM    9  C20   D T 701      -4.602  -2.898  10.495  1.00 33.52     0.061 A 
HETATM   10  C17   D T 701      -4.837  -1.466  10.247  1.00 32.71     0.025 A 
HETATM   11  C7    D T 701      -4.468  -0.310  10.926  1.00 32.88     0.031 A 
HETATM   12  C16   D T 701      -5.631  -1.421   8.981  1.00 32.41     0.085 A 
HETATM   13  C15   D T 701      -4.865   0.919  10.395  1.00 33.17     0.140 A 
HETATM   14  C5    D T 701      -5.606   0.987   9.213  1.00 32.94     0.031 A 
HETATM   15  F29   D T 701      -4.525   2.059  11.013  1.00 35.13    -0.204 F 
HETATM   16  C6    D T 701      -5.993  -0.159   8.512  1.00 32.25     0.021 A 
HETATM   17  N24   D T 701      -5.859  -2.681   8.518  1.00 32.41    -0.208 NA
HETATM   18  C21   D T 701      -5.286  -3.549   9.368  1.00 32.73     0.279 A 
HETATM   19  O27   D T 701      -5.325  -4.810   9.202  1.00 31.29    -0.265 OA
ENDBRANCH   8   9
ENDBRANCH   5   8
BRANCH   6  20
HETATM   20  C22   D T 701       1.242  -4.317  11.497  1.00 43.71     0.276 C 
HETATM   21  N25   D T 701       1.854  -3.989  10.360  1.00 47.28    -0.232 NA
HETATM   22  O28   D T 701       1.865  -4.538  12.522  1.00 44.02    -0.266 OA
BRANCH  21  23
HETATM   23  C37   D T 701       3.291  -3.815  10.274  1.00 50.13     0.164 C 
BRANCH  23  24
HETATM   24  C38   D T 701       3.673  -2.443   9.714  1.00 52.43     0.276 C 
BRANCH  24  25
HETATM   25  N4    D T 701       2.659  -1.398   9.999  1.00 55.35     0.139 N 
BRANCH  25  26
HETATM   26  C39   D T 701       3.035  -0.561  11.176  1.00 56.24     0.250 C 
HETATM   27  C42   D T 701       2.474  -1.005  12.518  1.00 56.21     0.037 C 
ENDBRANCH  25  26
BRANCH  25  28
HETATM   28  C40   D T 701       2.280  -0.664   8.765  1.00 56.18     0.250 C 
HETATM   29  C41   D T 701       0.778  -0.461   8.687  1.00 55.71     0.037 C 
ENDBRANCH  25  28
ENDBRANCH  24  25
ENDBRANCH  23  24
ENDBRANCH  21  23
ENDBRANCH   6  20
TORSDOF 8
ENDMDL
MODEL 2
REMARK VINA RESULT:    -8.048      2.404      3.292
REMARK INTER + INTRA:         -13.604
REMARK INTER:                 -12.107
REMARK INTRA:                  -1.497
REMARK UNBOUND:                -1.791
REMARK  8 active torsions:
REMARK  status: ('A' for Active; 'I' for Inactive)
REMARK    1  A    between atoms: C20_8  and  C12_12 
REMARK    2  A    between atoms: C22_10  and  C19_16 
REMARK       I    between atoms: C22_10  and  N25_19 
REMARK    3  A    between atoms: C12_12  and  C18_15 
REMARK    4  A    between atoms: N25_19  and  C37_23 
REMARK    5  A    between atoms: C37_23  and  C38_24 
REMARK    6  A    between atoms: C38_24  and  N4_25 
REMARK    7  A    between atoms: N4_25  and  C39_26 
REMARK    8  A    between atoms: N4_25  and  C40_27 
ROOT
HETATM    1  C4    D T 701       2.266  -4.032   9.148  1.00 38.18     0.052 C 
HETATM    2  C13   D T 701      -0.384  -1.880  10.957  1.00 38.14     0.002 A 
HETATM    3  C3    D T 701      -1.085  -0.686  11.562  1.00 38.74     0.033 C 
HETATM    4  C14   D T 701       1.085  -3.448   9.882  1.00 38.01     0.064 A 
HETATM    5  C18   D T 701      -0.844  -3.288  10.945  1.00 36.77     0.077 A 
HETATM    6  C19   D T 701       0.909  -2.015  10.246  1.00 40.17     0.069 A 
HETATM    7  N23   D T 701       0.004  -4.135  10.319  1.00 37.14    -0.250 NA
ENDROOT
BRANCH   5   8
HETATM    8  C12   D T 701      -2.129  -3.739  11.539  1.00 34.67     0.024 C 
BRANCH   8   9
HETATM    9  C20   D T 701      -3.366  -4.070  10.788  1.00 33.52     0.061 A 
HETATM   10  C17   D T 701      -4.326  -3.025  10.394  1.00 32.71     0.025 A 
HETATM   11  C7    D T 701      -4.362  -1.648  10.580  1.00 32.88     0.031 A 
HETATM   12  C16   D T 701      -5.402  -3.753   9.655  1.00 32.41     0.085 A 
HETATM   13  C15   D T 701      -5.448  -0.942  10.057  1.00 33.17     0.140 A 
HETATM   14  C5    D T 701      -6.464  -1.599   9.360  1.00 32.94     0.031 A 
HETATM   15  F29   D T 701      -5.519   0.388  10.206  1.00 35.13    -0.204 F 
HETATM   16  C6    D T 701      -6.455  -2.983   9.162  1.00 32.25     0.021 A 
HETATM   17  N24   D T 701      -5.132  -5.086   9.612  1.00 32.41    -0.208 NA
HETATM   18  C21   D T 701      -3.973  -5.299  10.258  1.00 32.73     0.279 A 
HETATM   19  O27   D T 701      -3.453  -6.453  10.385  1.00 31.29    -0.265 OA
ENDBRANCH   8   9
ENDBRANCH   5   8
BRANCH   6  20
HETATM   20  C22   D T 701       1.891  -0.934   9.940  1.00 43.71     0.276 C 
HETATM   21  N25   D T 701       1.486   0.171   9.315  1.00 47.28    -0.232 NA
HETATM   22  O28   D T 701       3.049  -1.087  10.289  1.00 44.02    -0.266 OA
BRANCH  21  23
HETATM   23  C37   D T 701       2.373   1.289   9.061  1.00 50.13     0.164 C 
BRANCH  23  24
HETATM   24  C38   D T 701       2.310   2.340  10.171  1.00 52.43     0.276 C 
BRANCH  24  25
HETATM   25  N4    D T 701       1.015   2.339  10.896  1.00 55.35     0.139 N 
BRANCH  25  26
HETATM   26  C39   D T 701       1.204   2.384  12.376  1.00 56.24     0.250 C 
HETATM   27  C42   D T 701      -0.061   2.534  13.206  1.00 56.21     0.037 C 
ENDBRANCH  25  26
BRANCH  25  28
HETATM   28  C40   D T 701       0.076   3.337  10.323  1.00 56.18     0.250 C 
HETATM   29  C41   D T 701      -1.163   2.664   9.762  1.00 55.71     0.037 C 
ENDBRANCH  25  28
ENDBRANCH  24  25
ENDBRANCH  23  24
ENDBRANCH  21  23
ENDBRANCH   6  20
TORSDOF 8
ENDMDL
MODEL 3
REMARK VINA RESULT:    -7.998      3.580      5.241
REMARK INTER + INTRA:         -13.530
REMARK INTER:                 -12.077
REMARK INTRA:                  -1.453
REMARK UNBOUND:                -1.791
REMARK  8 active torsions:
REMARK  status: ('A' for Active; 'I' for Inactive)
REMARK    1  A    between atoms: C20_8  and  C12_12 
REMARK    2  A    between atoms: C22_10  and  C19_16 
REMARK       I    between atoms: C22_10  and  N25_19 
REMARK    3  A    between atoms: C12_12  and  C18_15 
REMARK    4  A    between atoms: N25_19  and  C37_23 
REMARK    5  A    between atoms: C37_23  and  C38_24 
REMARK    6  A    between atoms: C38_24  and  N4_25 
REMARK    7  A    between atoms: N4_25  and  C39_26 
REMARK    8  A    between atoms: N4_25  and  C40_27 
ROOT
HETATM    1  C4    D T 701      -0.151   3.529  10.222  1.00 38.18     0.052 C 
HETATM    2  C13   D T 701      -0.992  -0.198  10.792  1.00 38.14     0.002 A 
HETATM    3  C3    D T 701      -0.835  -1.696  10.918  1.00 38.74     0.033 C 
HETATM    4  C14   D T 701      -0.754   2.173  10.490  1.00 38.01     0.064 A 
HETATM    5  C18   D T 701      -2.233   0.596  10.941  1.00 36.77     0.077 A 
HETATM    6  C19   D T 701      -0.020   0.878  10.487  1.00 40.17     0.069 A 
HETATM    7  N23   D T 701      -2.054   1.926  10.776  1.00 37.14    -0.250 NA
ENDROOT
BRANCH   5   8
HETATM    8  C12   D T 701      -3.556   0.002  11.265  1.00 34.67     0.024 C 
BRANCH   8   9
HETATM    9  C20   D T 701      -4.513  -0.575  10.288  1.00 33.52     0.061 A 
HETATM   10  C17   D T 701      -4.681  -2.032  10.150  1.00 32.71     0.025 A 
HETATM   11  C7    D T 701      -4.092  -3.121  10.781  1.00 32.88     0.031 A 
HETATM   12  C16   D T 701      -5.729  -2.199   9.096  1.00 32.41     0.085 A 
HETATM   13  C15   D T 701      -4.501  -4.401  10.401  1.00 33.17     0.140 A 
HETATM   14  C5    D T 701      -5.479  -4.583   9.421  1.00 32.94     0.031 A 
HETATM   15  F29   D T 701      -3.964  -5.480  10.988  1.00 35.13    -0.204 F 
HETATM   16  C6    D T 701      -6.085  -3.505   8.768  1.00 32.25     0.021 A 
HETATM   17  N24   D T 701      -6.142  -0.984   8.641  1.00 32.41    -0.208 NA
HETATM   18  C21   D T 701      -5.459  -0.035   9.301  1.00 32.73     0.279 A 
HETATM   19  O27   D T 701      -5.627   1.210   9.096  1.00 31.29    -0.265 OA
ENDBRANCH   8   9
ENDBRANCH   5   8
BRANCH   6  20
HETATM   20  C22   D T 701       1.438   0.729  10.209  1.00 43.71     0.276 C 
HETATM   21  N25   D T 701       1.889   0.842   8.960  1.00 47.28    -0.232 NA
HETATM   22  O28   D T 701       2.189   0.521  11.146  1.00 44.02    -0.266 OA
BRANCH  21  23
HETATM   23  C37   D T 701       3.301   0.788   8.635  1.00 50.13     0.164 C 
BRANCH  23  24
HETATM   24  C38   D T 701       3.839   2.142   8.170  1.00 52.43     0.276 C 
BRANCH  24  25
HETATM   25  N4    D T 701       4.497   2.908   9.258  1.00 55.35     0.139 N 
BRANCH  25  26
HETATM   26  C39   D T 701       5.860   3.375   8.866  1.00 56.24     0.250 C 
HETATM   27  C42   D T 701       5.913   4.563   7.919  1.00 56.21     0.037 C 
ENDBRANCH  25  26
BRANCH  25  28
HETATM   28  C40   D T 701       3.586   3.938   9.820  1.00 56.18     0.250 C 
HETATM   29  C41   D T 701       3.470   3.802  11.327  1.00 55.71     0.037 C 
ENDBRANCH  25  28
ENDBRANCH  24  25
ENDBRANCH  23  24
ENDBRANCH  21  23
ENDBRANCH   6  20
TORSDOF 8
ENDMDL
MODEL 4
REMARK VINA RESULT:    -7.986      2.966      4.815
REMARK INTER + INTRA:         -13.513
REMARK INTER:                 -12.011
REMARK INTRA:                  -1.501
REMARK UNBOUND:                -1.791
REMARK  8 active torsions:
REMARK  status: ('A' for Active; 'I' for Inactive)
REMARK    1  A    between atoms: C20_8  and  C12_12 
REMARK    2  A    between atoms: C22_10  and  C19_16 
REMARK       I    between atoms: C22_10  and  N25_19 
REMARK    3  A    between atoms: C12_12  and  C18_15 
REMARK    4  A    between atoms: N25_19  and  C37_23 
REMARK    5  A    between atoms: C37_23  and  C38_24 
REMARK    6  A    between atoms: C38_24  and  N4_25 
REMARK    7  A    between atoms: N4_25  and  C39_26 
REMARK    8  A    between atoms: N4_25  and  C40_27 
ROOT
HETATM    1  C4    D T 701       0.012   3.628  10.238  1.00 38.18     0.052 C 
HETATM    2  C13   D T 701      -1.044  -0.022  10.934  1.00 38.14     0.002 A 
HETATM    3  C3    D T 701      -0.968  -1.516  11.149  1.00 38.74     0.033 C 
HETATM    4  C14   D T 701      -0.673   2.316  10.529  1.00 38.01     0.064 A 
HETATM    5  C18   D T 701      -2.254   0.832  10.944  1.00 36.77     0.077 A 
HETATM    6  C19   D T 701      -0.003   0.992  10.649  1.00 40.17     0.069 A 
HETATM    7  N23   D T 701      -2.001   2.142  10.725  1.00 37.14    -0.250 NA
ENDROOT
BRANCH   5   8
HETATM    8  C12   D T 701      -3.624   0.315  11.196  1.00 34.67     0.024 C 
BRANCH   8   9
HETATM    9  C20   D T 701      -4.522  -0.298  10.184  1.00 33.52     0.061 A 
HETATM   10  C17   D T 701      -4.697  -1.758  10.101  1.00 32.71     0.025 A 
HETATM   11  C7    D T 701      -4.163  -2.823  10.818  1.00 32.88     0.031 A 
HETATM   12  C16   D T 701      -5.675  -1.964   8.989  1.00 32.41     0.085 A 
HETATM   13  C15   D T 701      -4.561  -4.115  10.469  1.00 33.17     0.140 A 
HETATM   14  C5    D T 701      -5.474  -4.333   9.436  1.00 32.94     0.031 A 
HETATM   15  F29   D T 701      -4.077  -5.171  11.139  1.00 35.13    -0.204 F 
HETATM   16  C6    D T 701      -6.024  -3.281   8.696  1.00 32.25     0.021 A 
HETATM   17  N24   D T 701      -6.043  -0.768   8.453  1.00 32.41    -0.208 NA
HETATM   18  C21   D T 701      -5.394   0.205   9.114  1.00 32.73     0.279 A 
HETATM   19  O27   D T 701      -5.534   1.440   8.842  1.00 31.29    -0.265 OA
ENDBRANCH   8   9
ENDBRANCH   5   8
BRANCH   6  20
HETATM   20  C22   D T 701       1.464   0.766  10.493  1.00 43.71     0.276 C 
HETATM   21  N25   D T 701       1.915   0.034   9.475  1.00 47.28    -0.232 NA
HETATM   22  O28   D T 701       2.219   1.277  11.302  1.00 44.02    -0.266 OA
BRANCH  21  23
HETATM   23  C37   D T 701       3.330  -0.156   9.223  1.00 50.13     0.164 C 
BRANCH  23  24
HETATM   24  C38   D T 701       3.774  -1.598   9.481  1.00 52.43     0.276 C 
BRANCH  24  25
HETATM   25  N4    D T 701       2.830  -2.348  10.346  1.00 55.35     0.139 N 
BRANCH  25  26
HETATM   26  C39   D T 701       2.293  -3.562   9.663  1.00 56.24     0.250 C 
HETATM   27  C42   D T 701       3.307  -4.412   8.915  1.00 56.21     0.037 C 
ENDBRANCH  25  26
BRANCH  25  28
HETATM   28  C40   D T 701       3.392  -2.553  11.705  1.00 56.18     0.250 C 
HETATM   29  C41   D T 701       2.493  -1.945  12.766  1.00 55.71     0.037 C 
ENDBRANCH  25  28
ENDBRANCH  24  25
ENDBRANCH  23  24
ENDBRANCH  21  23
ENDBRANCH   6  20
TORSDOF 8
ENDMDL
MODEL 5
REMARK VINA RESULT:    -7.776      1.485      2.561
REMARK INTER + INTRA:         -13.205
REMARK INTER:                 -12.117
REMARK INTRA:                  -1.088
REMARK UNBOUND:                -1.791
REMARK  8 active torsions:
REMARK  status: ('A' for Active; 'I' for Inactive)
REMARK    1  A    between atoms: C20_8  and  C12_12 
REMARK    2  A    between atoms: C22_10  and  C19_16 
REMARK       I    between atoms: C22_10  and  N25_19 
REMARK    3  A    between atoms: C12_12  and  C18_15 
REMARK    4  A    between atoms: N25_19  and  C37_23 
REMARK    5  A    between atoms: C37_23  and  C38_24 
REMARK    6  A    between atoms: C38_24  and  N4_25 
REMARK    7  A    between atoms: N4_25  and  C39_26 
REMARK    8  A    between atoms: N4_25  and  C40_27 
ROOT
HETATM    1  C4    D T 701       1.143  -1.694  12.400  1.00 38.18     0.052 C 
HETATM    2  C13   D T 701      -1.190  -4.406  10.941  1.00 38.14     0.002 A 
HETATM    3  C3    D T 701      -1.663  -5.653  10.231  1.00 38.74     0.033 C 
HETATM    4  C14   D T 701       0.015  -2.585  11.942  1.00 38.01     0.064 A 
HETATM    5  C18   D T 701      -2.020  -3.362  11.585  1.00 36.77     0.077 A 
HETATM    6  C19   D T 701       0.165  -3.860  11.189  1.00 40.17     0.069 A 
HETATM    7  N23   D T 701      -1.304  -2.362  12.147  1.00 37.14    -0.250 NA
ENDROOT
BRANCH   5   8
HETATM    8  C12   D T 701      -3.505  -3.408  11.638  1.00 34.67     0.024 C 
BRANCH   8   9
HETATM    9  C20   D T 701      -4.427  -2.994  10.551  1.00 33.52     0.061 A 
HETATM   10  C17   D T 701      -4.716  -1.573  10.293  1.00 32.71     0.025 A 
HETATM   11  C7    D T 701      -4.291  -0.392  10.890  1.00 32.88     0.031 A 
HETATM   12  C16   D T 701      -5.655  -1.578   9.130  1.00 32.41     0.085 A 
HETATM   13  C15   D T 701      -4.771   0.815  10.376  1.00 33.17     0.140 A 
HETATM   14  C5    D T 701      -5.648   0.836   9.289  1.00 32.94     0.031 A 
HETATM   15  F29   D T 701      -4.382   1.978  10.916  1.00 35.13    -0.204 F 
HETATM   16  C6    D T 701      -6.094  -0.337   8.672  1.00 32.25     0.021 A 
HETATM   17  N24   D T 701      -5.913  -2.855   8.733  1.00 32.41    -0.208 NA
HETATM   18  C21   D T 701      -5.227  -3.688   9.533  1.00 32.73     0.279 A 
HETATM   19  O27   D T 701      -5.263  -4.954   9.408  1.00 31.29    -0.265 OA
ENDBRANCH   8   9
ENDBRANCH   5   8
BRANCH   6  20
HETATM   20  C22   D T 701       1.469  -4.448  10.766  1.00 43.71     0.276 C 
HETATM   21  N25   D T 701       2.102  -3.959   9.700  1.00 47.28    -0.232 NA
HETATM   22  O28   D T 701       1.935  -5.362  11.426  1.00 44.02    -0.266 OA
BRANCH  21  23
HETATM   23  C37   D T 701       3.408  -4.432   9.286  1.00 50.13     0.164 C 
BRANCH  23  24
HETATM   24  C38   D T 701       4.526  -3.902  10.186  1.00 52.43     0.276 C 
BRANCH  24  25
HETATM   25  N4    D T 701       5.255  -2.755   9.591  1.00 55.35     0.139 N 
BRANCH  25  26
HETATM   26  C39   D T 701       4.714  -1.446  10.060  1.00 56.24     0.250 C 
HETATM   27  C42   D T 701       3.749  -0.744   9.117  1.00 56.21     0.037 C 
ENDBRANCH  25  26
BRANCH  25  28
HETATM   28  C40   D T 701       6.725  -2.936   9.698  1.00 56.18     0.250 C 
HETATM   29  C41   D T 701       7.111  -4.393   9.526  1.00 55.71     0.037 C 
ENDBRANCH  25  28
ENDBRANCH  24  25
ENDBRANCH  23  24
ENDBRANCH  21  23
ENDBRANCH   6  20
TORSDOF 8
ENDMDL
MODEL 6
REMARK VINA RESULT:    -7.629      3.034      5.922
REMARK INTER + INTRA:         -12.989
REMARK INTER:                 -11.922
REMARK INTRA:                  -1.067
REMARK UNBOUND:                -1.791
REMARK  8 active torsions:
REMARK  status: ('A' for Active; 'I' for Inactive)
REMARK    1  A    between atoms: C20_8  and  C12_12 
REMARK    2  A    between atoms: C22_10  and  C19_16 
REMARK       I    between atoms: C22_10  and  N25_19 
REMARK    3  A    between atoms: C12_12  and  C18_15 
REMARK    4  A    between atoms: N25_19  and  C37_23 
REMARK    5  A    between atoms: C37_23  and  C38_24 
REMARK    6  A    between atoms: C38_24  and  N4_25 
REMARK    7  A    between atoms: N4_25  and  C39_26 
REMARK    8  A    between atoms: N4_25  and  C40_27 
ROOT
HETATM    1  C4    D T 701       1.565  -4.435  10.284  1.00 38.18     0.052 C 
HETATM    2  C13   D T 701      -2.133  -3.646  11.076  1.00 38.14     0.002 A 
HETATM    3  C3    D T 701      -3.611  -3.831  11.328  1.00 38.74     0.033 C 
HETATM    4  C14   D T 701       0.215  -3.846  10.610  1.00 38.01     0.064 A 
HETATM    5  C18   D T 701      -1.368  -2.378  11.070  1.00 36.77     0.077 A 
HETATM    6  C19   D T 701      -1.053  -4.611  10.761  1.00 40.17     0.069 A 
HETATM    7  N23   D T 701      -0.049  -2.535  10.817  1.00 37.14    -0.250 NA
ENDROOT
BRANCH   5   8
HETATM    8  C12   D T 701      -1.976  -1.049  11.341  1.00 34.67     0.024 C 
BRANCH   8   9
HETATM    9  C20   D T 701      -2.301  -0.018  10.323  1.00 33.52     0.061 A 
HETATM   10  C17   D T 701      -3.644   0.071   9.725  1.00 32.71     0.025 A 
HETATM   11  C7    D T 701      -4.813  -0.660   9.899  1.00 32.88     0.031 A 
HETATM   12  C16   D T 701      -3.567   1.228   8.781  1.00 32.41     0.085 A 
HETATM   13  C15   D T 701      -5.936  -0.291   9.155  1.00 33.17     0.140 A 
HETATM   14  C5    D T 701      -5.889   0.787   8.268  1.00 32.94     0.031 A 
HETATM   15  F29   D T 701      -7.087  -0.964   9.296  1.00 35.13    -0.204 F 
HETATM   16  C6    D T 701      -4.726   1.537   8.071  1.00 32.25     0.021 A 
HETATM   17  N24   D T 701      -2.319   1.772   8.796  1.00 32.41    -0.208 NA
HETATM   18  C21   D T 701      -1.569   1.075   9.667  1.00 32.73     0.279 A 
HETATM   19  O27   D T 701      -0.349   1.347   9.904  1.00 31.29    -0.265 OA
ENDBRANCH   8   9
ENDBRANCH   5   8
BRANCH   6  20
HETATM   20  C22   D T 701      -1.177  -6.089  10.604  1.00 43.71     0.276 C 
HETATM   21  N25   D T 701      -0.543  -6.901  11.450  1.00 47.28    -0.232 NA
HETATM   22  O28   D T 701      -1.878  -6.520   9.704  1.00 44.02    -0.266 OA
BRANCH  21  23
HETATM   23  C37   D T 701      -0.687  -8.343  11.399  1.00 50.13     0.164 C 
BRANCH  23  24
HETATM   24  C38   D T 701      -1.028  -8.937  12.767  1.00 52.43     0.276 C 
BRANCH  24  25
HETATM   25  N4    D T 701      -2.083  -9.978  12.699  1.00 55.35     0.139 N 
BRANCH  25  26
HETATM   26  C39   D T 701      -1.572 -11.319  13.110  1.00 56.24     0.250 C 
HETATM   27  C42   D T 701      -0.680 -12.030  12.105  1.00 56.21     0.037 C 
ENDBRANCH  25  26
BRANCH  25  28
HETATM   28  C40   D T 701      -3.334  -9.521  13.358  1.00 56.18     0.250 C 
HETATM   29  C41   D T 701      -3.918  -8.315  12.647  1.00 55.71     0.037 C 
ENDBRANCH  25  28
ENDBRANCH  24  25
ENDBRANCH  23  24
ENDBRANCH  21  23
ENDBRANCH   6  20
TORSDOF 8
ENDMDL
MODEL 7
REMARK VINA RESULT:    -7.615      3.396      4.777
REMARK INTER + INTRA:         -12.968
REMARK INTER:                 -11.797
REMARK INTRA:                  -1.171
REMARK UNBOUND:                -1.791
REMARK  8 active torsions:
REMARK  status: ('A' for Active; 'I' for Inactive)
REMARK    1  A    between atoms: C20_8  and  C12_12 
REMARK    2  A    between atoms: C22_10  and  C19_16 
REMARK       I    between atoms: C22_10  and  N25_19 
REMARK    3  A    between atoms: C12_12  and  C18_15 
REMARK    4  A    between atoms: N25_19  and  C37_23 
REMARK    5  A    between atoms: C37_23  and  C38_24 
REMARK    6  A    between atoms: C38_24  and  N4_25 
REMARK    7  A    between atoms: N4_25  and  C39_26 
REMARK    8  A    between atoms: N4_25  and  C40_27 
ROOT
HETATM    1  C4    D T 701       1.515  -1.949   9.649  1.00 38.18     0.052 C 
HETATM    2  C13   D T 701      -0.750   0.854  11.042  1.00 38.14     0.002 A 
HETATM    3  C3    D T 701      -1.200   2.189  11.588  1.00 38.74     0.033 C 
HETATM    4  C14   D T 701       0.415  -1.055  10.165  1.00 38.01     0.064 A 
HETATM    5  C18   D T 701      -1.577  -0.352  10.808  1.00 36.77     0.077 A 
HETATM    6  C19   D T 701       0.577   0.356  10.610  1.00 40.17     0.069 A 
HETATM    7  N23   D T 701      -0.887  -1.400  10.302  1.00 37.14    -0.250 NA
ENDROOT
BRANCH   5   8
HETATM    8  C12   D T 701      -3.037  -0.413  11.076  1.00 34.67     0.024 C 
BRANCH   8   9
HETATM    9  C20   D T 701      -4.076  -0.894  10.130  1.00 33.52     0.061 A 
HETATM   10  C17   D T 701      -4.478  -2.310  10.090  1.00 32.71     0.025 A 
HETATM   11  C7    D T 701      -4.074  -3.435  10.801  1.00 32.88     0.031 A 
HETATM   12  C16   D T 701      -5.539  -2.378   9.039  1.00 32.41     0.085 A 
HETATM   13  C15   D T 701      -4.686  -4.655  10.505  1.00 33.17     0.140 A 
HETATM   14  C5    D T 701      -5.680  -4.743   9.528  1.00 32.94     0.031 A 
HETATM   15  F29   D T 701      -4.332  -5.763  11.171  1.00 35.13    -0.204 F 
HETATM   16  C6    D T 701      -6.103  -3.629   8.796  1.00 32.25     0.021 A 
HETATM   17  N24   D T 701      -5.750  -1.147   8.497  1.00 32.41    -0.208 NA
HETATM   18  C21   D T 701      -4.921  -0.277   9.098  1.00 32.73     0.279 A 
HETATM   19  O27   D T 701      -4.885   0.961   8.806  1.00 31.29    -0.265 OA
ENDBRANCH   8   9
ENDBRANCH   5   8
BRANCH   6  20
HETATM   20  C22   D T 701       1.869   1.102  10.614  1.00 43.71     0.276 C 
HETATM   21  N25   D T 701       2.076   2.075   9.728  1.00 47.28    -0.232 NA
HETATM   22  O28   D T 701       2.705   0.807  11.451  1.00 44.02    -0.266 OA
BRANCH  21  23
HETATM   23  C37   D T 701       3.276   2.889   9.732  1.00 50.13     0.164 C 
BRANCH  23  24
HETATM   24  C38   D T 701       4.145   2.642   8.497  1.00 52.43     0.276 C 
BRANCH  24  25
HETATM   25  N4    D T 701       5.326   1.791   8.781  1.00 55.35     0.139 N 
BRANCH  25  26
HETATM   26  C39   D T 701       5.173   0.417   8.217  1.00 56.24     0.250 C 
HETATM   27  C42   D T 701       5.005  -0.705   9.229  1.00 56.21     0.037 C 
ENDBRANCH  25  26
BRANCH  25  28
HETATM   28  C40   D T 701       6.591   2.498   8.454  1.00 56.18     0.250 C 
HETATM   29  C41   D T 701       6.333   3.957   8.128  1.00 55.71     0.037 C 
ENDBRANCH  25  28
ENDBRANCH  24  25
ENDBRANCH  23  24
ENDBRANCH  21  23
ENDBRANCH   6  20
TORSDOF 8
ENDMDL
MODEL 8
REMARK VINA RESULT:    -7.524      2.348      3.330
REMARK INTER + INTRA:         -12.834
REMARK INTER:                 -11.517
REMARK INTRA:                  -1.317
REMARK UNBOUND:                -1.791
REMARK  8 active torsions:
REMARK  status: ('A' for Active; 'I' for Inactive)
REMARK    1  A    between atoms: C20_8  and  C12_12 
REMARK    2  A    between atoms: C22_10  and  C19_16 
REMARK       I    between atoms: C22_10  and  N25_19 
REMARK    3  A    between atoms: C12_12  and  C18_15 
REMARK    4  A    between atoms: N25_19  and  C37_23 
REMARK    5  A    between atoms: C37_23  and  C38_24 
REMARK    6  A    between atoms: C38_24  and  N4_25 
REMARK    7  A    between atoms: N4_25  and  C39_26 
REMARK    8  A    between atoms: N4_25  and  C40_27 
ROOT
HETATM    1  C4    D T 701       0.845  -0.200  12.854  1.00 38.18     0.052 C 
HETATM    2  C13   D T 701      -0.043  -3.400  10.880  1.00 38.14     0.002 A 
HETATM    3  C3    D T 701       0.023  -4.518   9.865  1.00 38.74     0.033 C 
HETATM    4  C14   D T 701       0.267  -1.464  12.268  1.00 38.01     0.064 A 
HETATM    5  C18   D T 701      -1.077  -3.180  11.916  1.00 36.77     0.077 A 
HETATM    6  C19   D T 701       0.840  -2.237  11.132  1.00 40.17     0.069 A 
HETATM    7  N23   D T 701      -0.859  -2.088  12.684  1.00 37.14    -0.250 NA
ENDROOT
BRANCH   5   8
HETATM    8  C12   D T 701      -2.240  -4.081  12.123  1.00 34.67     0.024 C 
BRANCH   8   9
HETATM    9  C20   D T 701      -3.333  -4.329  11.148  1.00 33.52     0.061 A 
HETATM   10  C17   D T 701      -4.209  -3.238  10.688  1.00 32.71     0.025 A 
HETATM   11  C7    D T 701      -4.273  -1.881  10.980  1.00 32.88     0.031 A 
HETATM   12  C16   D T 701      -5.147  -3.884   9.718  1.00 32.41     0.085 A 
HETATM   13  C15   D T 701      -5.252  -1.116  10.342  1.00 33.17     0.140 A 
HETATM   14  C5    D T 701      -6.137  -1.696   9.432  1.00 32.94     0.031 A 
HETATM   15  F29   D T 701      -5.344   0.198  10.589  1.00 35.13    -0.204 F 
HETATM   16  C6    D T 701      -6.098  -3.059   9.122  1.00 32.25     0.021 A 
HETATM   17  N24   D T 701      -4.876  -5.214   9.609  1.00 32.41    -0.208 NA
HETATM   18  C21   D T 701      -3.845  -5.499  10.421  1.00 32.73     0.279 A 
HETATM   19  O27   D T 701      -3.357  -6.668  10.537  1.00 31.29    -0.265 OA
ENDBRANCH   8   9
ENDBRANCH   5   8
BRANCH   6  20
HETATM   20  C22   D T 701       2.084  -1.868  10.395  1.00 43.71     0.276 C 
HETATM   21  N25   D T 701       2.041  -0.921   9.457  1.00 47.28    -0.232 NA
HETATM   22  O28   D T 701       3.121  -2.438  10.685  1.00 44.02    -0.266 OA
BRANCH  21  23
HETATM   23  C37   D T 701       3.228  -0.462   8.763  1.00 50.13     0.164 C 
BRANCH  23  24
HETATM   24  C38   D T 701       3.905   0.704   9.487  1.00 52.43     0.276 C 
BRANCH  24  25
HETATM   25  N4    D T 701       3.286   2.017   9.176  1.00 55.35     0.139 N 
BRANCH  25  26
HETATM   26  C39   D T 701       2.524   2.563  10.338  1.00 56.24     0.250 C 
HETATM   27  C42   D T 701       1.009   2.501  10.231  1.00 56.21     0.037 C 
ENDBRANCH  25  26
BRANCH  25  28
HETATM   28  C40   D T 701       4.263   2.936   8.540  1.00 56.18     0.250 C 
HETATM   29  C41   D T 701       4.036   4.369   8.983  1.00 55.71     0.037 C 
ENDBRANCH  25  28
ENDBRANCH  24  25
ENDBRANCH  23  24
ENDBRANCH  21  23
ENDBRANCH   6  20
TORSDOF 8
ENDMDL
MODEL 9
REMARK VINA RESULT:    -7.428      2.915      4.861
REMARK INTER + INTRA:         -12.693
REMARK INTER:                 -11.596
REMARK INTRA:                  -1.097
REMARK UNBOUND:                -1.791
REMARK  8 active torsions:
REMARK  status: ('A' for Active; 'I' for Inactive)
REMARK    1  A    between atoms: C20_8  and  C12_12 
REMARK    2  A    between atoms: C22_10  and  C19_16 
REMARK       I    between atoms: C22_10  and  N25_19 
REMARK    3  A    between atoms: C12_12  and  C18_15 
REMARK    4  A    between atoms: N25_19  and  C37_23 
REMARK    5  A    between atoms: C37_23  and  C38_24 
REMARK    6  A    between atoms: C38_24  and  N4_25 
REMARK    7  A    between atoms: N4_25  and  C39_26 
REMARK    8  A    between atoms: N4_25  and  C40_27 
ROOT
HETATM    1  C4    D T 701       0.366   2.090  13.390  1.00 38.18     0.052 C 
HETATM    2  C13   D T 701      -0.679   1.121   9.799  1.00 38.14     0.002 A 
HETATM    3  C3    D T 701      -0.609   0.606   8.380  1.00 38.74     0.033 C 
HETATM    4  C14   D T 701      -0.308   1.814  12.069  1.00 38.01     0.064 A 
HETATM    5  C18   D T 701      -1.848   1.709  10.491  1.00 36.77     0.077 A 
HETATM    6  C19   D T 701       0.338   1.207  10.873  1.00 40.17     0.069 A 
HETATM    7  N23   D T 701      -1.602   2.074  11.770  1.00 37.14    -0.250 NA
ENDROOT
BRANCH   5   8
HETATM    8  C12   D T 701      -3.184   1.867   9.859  1.00 34.67     0.024 C 
BRANCH   8   9
HETATM    9  C20   D T 701      -4.134   0.770   9.548  1.00 33.52     0.061 A 
HETATM   10  C17   D T 701      -3.949  -0.583  10.099  1.00 32.71     0.025 A 
HETATM   11  C7    D T 701      -2.989  -1.148  10.930  1.00 32.88     0.031 A 
HETATM   12  C16   D T 701      -5.104  -1.373   9.573  1.00 32.41     0.085 A 
HETATM   13  C15   D T 701      -3.124  -2.496  11.269  1.00 33.17     0.140 A 
HETATM   14  C5    D T 701      -4.195  -3.254  10.792  1.00 32.94     0.031 A 
HETATM   15  F29   D T 701      -2.225  -3.080  12.074  1.00 35.13    -0.204 F 
HETATM   16  C6    D T 701      -5.173  -2.712   9.951  1.00 32.25     0.021 A 
HETATM   17  N24   D T 701      -5.895  -0.592   8.787  1.00 32.41    -0.208 NA
HETATM   18  C21   D T 701      -5.361   0.640   8.749  1.00 32.73     0.279 A 
HETATM   19  O27   D T 701      -5.879   1.600   8.093  1.00 31.29    -0.265 OA
ENDBRANCH   8   9
ENDBRANCH   5   8
BRANCH   6  20
HETATM   20  C22   D T 701       1.767   0.783  10.803  1.00 43.71     0.276 C 
HETATM   21  N25   D T 701       2.101  -0.473  11.101  1.00 47.28    -0.232 NA
HETATM   22  O28   D T 701       2.599   1.603  10.455  1.00 44.02    -0.266 OA
BRANCH  21  23
HETATM   23  C37   D T 701       3.458  -0.966  10.976  1.00 50.13     0.164 C 
BRANCH  23  24
HETATM   24  C38   D T 701       3.670  -1.747   9.677  1.00 52.43     0.276 C 
BRANCH  24  25
HETATM   25  N4    D T 701       3.472  -3.209   9.841  1.00 55.35     0.139 N 
BRANCH  25  26
HETATM   26  C39   D T 701       2.299  -3.704   9.062  1.00 56.24     0.250 C 
HETATM   27  C42   D T 701       1.027  -3.956   9.855  1.00 56.21     0.037 C 
ENDBRANCH  25  26
BRANCH  25  28
HETATM   28  C40   D T 701       4.746  -3.949   9.655  1.00 56.18     0.250 C 
HETATM   29  C41   D T 701       4.490  -5.365   9.171  1.00 55.71     0.037 C 
ENDBRANCH  25  28
ENDBRANCH  24  25
ENDBRANCH  23  24
ENDBRANCH  21  23
ENDBRANCH   6  20
TORSDOF 8
ENDMDL
