MODEL 1
REMARK VINA RESULT:    -7.690      0.000      0.000
REMARK INTER + INTRA:          -8.841
REMARK INTER:                  -8.590
REMARK INTRA:                  -0.251
REMARK UNBOUND:                -0.251
REMARK  2 active torsions:
REMARK  status: ('A' for Active; 'I' for Inactive)
REMARK    1  A    between atoms: C5_4  and  O7_13 
REMARK    2  A    between atoms: C8_10  and  O7_13 
ROOT
HETATM    1  O7    D T 302       5.716   0.039  -7.524  1.00 12.29    -0.304 OA
ENDROOT
BRANCH   1   2
HETATM    2  C5    D T 302       5.037   0.969  -6.802  1.00 11.31     0.125 A 
HETATM    3  C6    D T 302       3.912   0.519  -5.976  1.00 10.91     0.154 A 
HETATM    4  C1    D T 302       3.217   1.466  -5.245  1.00 11.11     0.041 A 
HETATM    5  O17   D T 302       3.589  -0.795  -5.932  1.00 10.71    -0.188 OA
HETATM    6  C2    D T 302       3.591   2.808  -5.342  1.00 11.31     0.060 A 
HETATM    7  C3    D T 302       4.645   3.234  -6.123  1.00 11.21     0.014 A 
HETATM    8 CL14   D T 302       2.705   4.038  -4.418  1.00 12.38    -0.082 Cl
HETATM    9  C4    D T 302       5.375   2.312  -6.868  1.00 11.12     0.028 A 
ENDBRANCH   1   2
BRANCH   1  10
HETATM   10  C8    D T 302       6.153   0.413  -8.757  1.00 13.41     0.111 A 
HETATM   11  C9    D T 302       5.200   0.415  -9.873  1.00 14.42     0.081 A 
HETATM   12  C10   D T 302       5.589   0.754 -11.145  1.00 15.02     0.025 A 
HETATM   13 CL16   D T 302       3.546  -0.059  -9.548  1.00 16.61    -0.080 Cl
HETATM   14  C11   D T 302       6.908   1.102 -11.343  1.00 14.88     0.059 A 
HETATM   15  C12   D T 302       7.831   1.112 -10.316  1.00 14.38     0.013 A 
HETATM   16 CL15   D T 302       7.403   1.532 -12.990  1.00 17.32    -0.082 Cl
HETATM   17  C13   D T 302       7.467   0.773  -9.028  1.00 13.78     0.026 A 
ENDBRANCH   1  10
TORSDOF 2
ENDMDL
MODEL 2
REMARK VINA RESULT:    -7.608      1.164      5.690
REMARK INTER + INTRA:          -8.748
REMARK INTER:                  -8.575
REMARK INTRA:                  -0.174
REMARK UNBOUND:                -0.251
REMARK  2 active torsions:
REMARK  status: ('A' for Active; 'I' for Inactive)
REMARK    1  A    between atoms: C5_4  and  O7_13 
REMARK    2  A    between atoms: C8_10  and  O7_13 
ROOT
HETATM    1  O7    D T 302       5.773   0.070  -7.811  1.00 12.29    -0.304 OA
ENDROOT
BRANCH   1   2
HETATM    2  C5    D T 302       6.186   0.406  -9.061  1.00 11.31     0.125 A 
HETATM    3  C6    D T 302       5.175   0.514 -10.119  1.00 10.91     0.154 A 
HETATM    4  C1    D T 302       5.596   0.850 -11.393  1.00 11.11     0.041 A 
HETATM    5  O17   D T 302       3.870   0.302  -9.830  1.00 10.71    -0.188 OA
HETATM    6  C2    D T 302       6.958   1.044 -11.630  1.00 11.31     0.060 A 
HETATM    7  C3    D T 302       7.911   0.936 -10.638  1.00 11.21     0.014 A 
HETATM    8 CL14   D T 302       7.516   1.467 -13.261  1.00 12.38    -0.082 Cl
HETATM    9  C4    D T 302       7.529   0.608  -9.341  1.00 11.12     0.028 A 
ENDBRANCH   1   2
BRANCH   1  10
HETATM   10  C8    D T 302       5.163   1.043  -7.080  1.00 13.41     0.111 A 
HETATM   11  C9    D T 302       4.049   0.670  -6.200  1.00 14.42     0.081 A 
HETATM   12  C10   D T 302       3.376   1.611  -5.461  1.00 15.02     0.025 A 
HETATM   13 CL16   D T 302       3.573  -1.014  -6.136  1.00 16.61    -0.080 Cl
HETATM   14  C11   D T 302       3.785   2.923  -5.564  1.00 14.88     0.059 A 
HETATM   15  C12   D T 302       4.830   3.309  -6.381  1.00 14.38     0.013 A 
HETATM   16 CL15   D T 302       2.907   4.132  -4.610  1.00 17.32    -0.082 Cl
HETATM   17  C13   D T 302       5.522   2.383  -7.137  1.00 13.78     0.026 A 
ENDBRANCH   1  10
TORSDOF 2
ENDMDL
MODEL 3
REMARK VINA RESULT:    -7.592      3.043      3.432
REMARK INTER + INTRA:          -8.731
REMARK INTER:                  -8.272
REMARK INTRA:                  -0.459
REMARK UNBOUND:                -0.251
REMARK  2 active torsions:
REMARK  status: ('A' for Active; 'I' for Inactive)
REMARK    1  A    between atoms: C5_4  and  O7_13 
REMARK    2  A    between atoms: C8_10  and  O7_13 
ROOT
HETATM    1  O7    D T 302       6.113   1.521  -7.849  1.00 12.29    -0.304 OA
ENDROOT
BRANCH   1   2
HETATM    2  C5    D T 302       7.119   1.583  -6.937  1.00 11.31     0.125 A 
HETATM    3  C6    D T 302       7.142   0.584  -5.862  1.00 10.91     0.154 A 
HETATM    4  C1    D T 302       8.163   0.650  -4.931  1.00 11.11     0.041 A 
HETATM    5  O17   D T 302       6.189  -0.376  -5.811  1.00 10.71    -0.188 OA
HETATM    6  C2    D T 302       9.109   1.672  -5.031  1.00 11.31     0.060 A 
HETATM    7  C3    D T 302       9.085   2.615  -6.037  1.00 11.21     0.014 A 
HETATM    8 CL14   D T 302      10.421   1.776  -3.839  1.00 12.38    -0.082 Cl
HETATM    9  C4    D T 302       8.080   2.580  -6.998  1.00 11.12     0.028 A 
ENDBRANCH   1   2
BRANCH   1  10
HETATM   10  C8    D T 302       6.470   1.422  -9.158  1.00 13.41     0.111 A 
HETATM   11  C9    D T 302       5.911   2.383 -10.117  1.00 14.42     0.081 A 
HETATM   12  C10   D T 302       6.212   2.314 -11.455  1.00 15.02     0.025 A 
HETATM   13 CL16   D T 302       4.819   3.611  -9.515  1.00 16.61    -0.080 Cl
HETATM   14  C11   D T 302       7.065   1.316 -11.872  1.00 14.88     0.059 A 
HETATM   15  C12   D T 302       7.609   0.395 -10.997  1.00 14.38     0.013 A 
HETATM   16 CL15   D T 302       7.443   1.231 -13.602  1.00 17.32    -0.082 Cl
HETATM   17  C13   D T 302       7.322   0.440  -9.647  1.00 13.78     0.026 A 
ENDBRANCH   1  10
TORSDOF 2
ENDMDL
MODEL 4
REMARK VINA RESULT:    -7.572      3.156      5.976
REMARK INTER + INTRA:          -8.708
REMARK INTER:                  -8.253
REMARK INTRA:                  -0.455
REMARK UNBOUND:                -0.251
REMARK  2 active torsions:
REMARK  status: ('A' for Active; 'I' for Inactive)
REMARK    1  A    between atoms: C5_4  and  O7_13 
REMARK    2  A    between atoms: C8_10  and  O7_13 
ROOT
HETATM    1  O7    D T 302       6.063   1.606  -7.972  1.00 12.29    -0.304 OA
ENDROOT
BRANCH   1   2
HETATM    2  C5    D T 302       6.438   1.498  -9.274  1.00 11.31     0.125 A 
HETATM    3  C6    D T 302       5.882   2.455 -10.237  1.00 10.91     0.154 A 
HETATM    4  C1    D T 302       6.259   2.342 -11.563  1.00 11.11     0.041 A 
HETATM    5  O17   D T 302       5.037   3.425  -9.815  1.00 10.71    -0.188 OA
HETATM    6  C2    D T 302       7.125   1.312 -11.938  1.00 11.31     0.060 A 
HETATM    7  C3    D T 302       7.643   0.407 -11.035  1.00 11.21     0.014 A 
HETATM    8 CL14   D T 302       7.612   1.147 -13.637  1.00 12.38    -0.082 Cl
HETATM    9  C4    D T 302       7.295   0.492  -9.691  1.00 11.12     0.028 A 
ENDBRANCH   1   2
BRANCH   1  10
HETATM   10  C8    D T 302       7.057   1.672  -7.046  1.00 13.41     0.111 A 
HETATM   11  C9    D T 302       7.076   0.686  -5.959  1.00 14.42     0.081 A 
HETATM   12  C10   D T 302       8.037   0.720  -4.980  1.00 15.02     0.025 A 
HETATM   13 CL16   D T 302       5.815  -0.528  -5.923  1.00 16.61    -0.080 Cl
HETATM   14  C11   D T 302       8.995   1.709  -5.052  1.00 14.88     0.059 A 
HETATM   15  C12   D T 302       9.008   2.652  -6.061  1.00 14.38     0.013 A 
HETATM   16 CL15   D T 302      10.229   1.749  -3.780  1.00 17.32    -0.082 Cl
HETATM   17  C13   D T 302       8.052   2.642  -7.057  1.00 13.78     0.026 A 
ENDBRANCH   1  10
TORSDOF 2
ENDMDL
MODEL 5
REMARK VINA RESULT:    -7.316      2.524      3.078
REMARK INTER + INTRA:          -8.423
REMARK INTER:                  -8.156
REMARK INTRA:                  -0.267
REMARK UNBOUND:                -0.251
REMARK  2 active torsions:
REMARK  status: ('A' for Active; 'I' for Inactive)
REMARK    1  A    between atoms: C5_4  and  O7_13 
REMARK    2  A    between atoms: C8_10  and  O7_13 
ROOT
HETATM    1  O7    D T 302       4.724   3.258  -7.687  1.00 12.29    -0.304 OA
ENDROOT
BRANCH   1   2
HETATM    2  C5    D T 302       4.412   2.445  -6.644  1.00 11.31     0.125 A 
HETATM    3  C6    D T 302       4.637   2.947  -5.284  1.00 10.91     0.154 A 
HETATM    4  C1    D T 302       4.324   2.118  -4.221  1.00 11.11     0.041 A 
HETATM    5  O17   D T 302       5.123   4.196  -5.096  1.00 10.71    -0.188 OA
HETATM    6  C2    D T 302       3.838   0.834  -4.481  1.00 11.31     0.060 A 
HETATM    7  C3    D T 302       3.632   0.359  -5.759  1.00 11.21     0.014 A 
HETATM    8 CL14   D T 302       3.440  -0.246  -3.129  1.00 12.38    -0.082 Cl
HETATM    9  C4    D T 302       3.926   1.164  -6.855  1.00 11.12     0.028 A 
ENDBRANCH   1   2
BRANCH   1  10
HETATM   10  C8    D T 302       5.364   2.688  -8.744  1.00 13.41     0.111 A 
HETATM   11  C9    D T 302       6.812   2.463  -8.654  1.00 14.42     0.081 A 
HETATM   12  C10   D T 302       7.517   1.919  -9.699  1.00 15.02     0.025 A 
HETATM   13 CL16   D T 302       7.632   2.934  -7.181  1.00 16.61    -0.080 Cl
HETATM   14  C11   D T 302       6.820   1.582 -10.840  1.00 14.88     0.059 A 
HETATM   15  C12   D T 302       5.458   1.780 -10.958  1.00 14.38     0.013 A 
HETATM   16 CL15   D T 302       7.739   0.886 -12.186  1.00 17.32    -0.082 Cl
HETATM   17  C13   D T 302       4.725   2.327  -9.923  1.00 13.78     0.026 A 
ENDBRANCH   1  10
TORSDOF 2
ENDMDL
MODEL 6
REMARK VINA RESULT:    -7.316      1.428      5.871
REMARK INTER + INTRA:          -8.423
REMARK INTER:                  -7.898
REMARK INTRA:                  -0.524
REMARK UNBOUND:                -0.251
REMARK  2 active torsions:
REMARK  status: ('A' for Active; 'I' for Inactive)
REMARK    1  A    between atoms: C5_4  and  O7_13 
REMARK    2  A    between atoms: C8_10  and  O7_13 
ROOT
HETATM    1  O7    D T 302       6.221   0.545  -6.666  1.00 12.29    -0.304 OA
ENDROOT
BRANCH   1   2
HETATM    2  C5    D T 302       6.403   0.674  -8.006  1.00 11.31     0.125 A 
HETATM    3  C6    D T 302       7.652   1.281  -8.481  1.00 10.91     0.154 A 
HETATM    4  C1    D T 302       7.835   1.418  -9.845  1.00 11.11     0.041 A 
HETATM    5  O17   D T 302       8.592   1.676  -7.590  1.00 10.71    -0.188 OA
HETATM    6  C2    D T 302       6.822   1.002 -10.712  1.00 11.31     0.060 A 
HETATM    7  C3    D T 302       5.645   0.437 -10.268  1.00 11.21     0.014 A 
HETATM    8 CL14   D T 302       7.038   1.178 -12.466  1.00 12.38    -0.082 Cl
HETATM    9  C4    D T 302       5.424   0.275  -8.903  1.00 11.12     0.028 A 
ENDBRANCH   1   2
BRANCH   1  10
HETATM   10  C8    D T 302       5.370   1.425  -6.071  1.00 13.41     0.111 A 
HETATM   11  C9    D T 302       4.089   0.927  -5.554  1.00 14.42     0.081 A 
HETATM   12  C10   D T 302       3.178   1.772  -4.970  1.00 15.02     0.025 A 
HETATM   13 CL16   D T 302       3.733  -0.778  -5.728  1.00 16.61    -0.080 Cl
HETATM   14  C11   D T 302       3.506   3.107  -4.876  1.00 14.88     0.059 A 
HETATM   15  C12   D T 302       4.703   3.609  -5.351  1.00 14.38     0.013 A 
HETATM   16 CL15   D T 302       2.321   4.192  -4.126  1.00 17.32    -0.082 Cl
HETATM   17  C13   D T 302       5.636   2.782  -5.944  1.00 13.78     0.026 A 
ENDBRANCH   1  10
TORSDOF 2
ENDMDL
MODEL 7
REMARK VINA RESULT:    -7.315      1.463      1.877
REMARK INTER + INTRA:          -8.421
REMARK INTER:                  -8.103
REMARK INTRA:                  -0.318
REMARK UNBOUND:                -0.251
REMARK  2 active torsions:
REMARK  status: ('A' for Active; 'I' for Inactive)
REMARK    1  A    between atoms: C5_4  and  O7_13 
REMARK    2  A    between atoms: C8_10  and  O7_13 
ROOT
HETATM    1  O7    D T 302       5.614   0.341  -6.967  1.00 12.29    -0.304 OA
ENDROOT
BRANCH   1   2
HETATM    2  C5    D T 302       4.907   1.309  -6.327  1.00 11.31     0.125 A 
HETATM    3  C6    D T 302       3.922   0.898  -5.321  1.00 10.91     0.154 A 
HETATM    4  C1    D T 302       3.198   1.883  -4.673  1.00 11.11     0.041 A 
HETATM    5  O17   D T 302       3.754  -0.415  -5.038  1.00 10.71    -0.188 OA
HETATM    6  C2    D T 302       3.410   3.220  -5.019  1.00 11.31     0.060 A 
HETATM    7  C3    D T 302       4.330   3.607  -5.970  1.00 11.21     0.014 A 
HETATM    8 CL14   D T 302       2.483   4.496  -4.205  1.00 12.38    -0.082 Cl
HETATM    9  C4    D T 302       5.085   2.648  -6.638  1.00 11.12     0.028 A 
ENDBRANCH   1   2
BRANCH   1  10
HETATM   10  C8    D T 302       5.922   0.561  -8.274  1.00 13.41     0.111 A 
HETATM   11  C9    D T 302       7.283   0.992  -8.615  1.00 14.42     0.081 A 
HETATM   12  C10   D T 302       7.645   1.259  -9.912  1.00 15.02     0.025 A 
HETATM   13 CL16   D T 302       8.438   1.189  -7.314  1.00 16.61    -0.080 Cl
HETATM   14  C11   D T 302       6.688   1.101 -10.892  1.00 14.88     0.059 A 
HETATM   15  C12   D T 302       5.398   0.697 -10.606  1.00 14.38     0.013 A 
HETATM   16 CL15   D T 302       7.162   1.453 -12.564  1.00 17.32    -0.082 Cl
HETATM   17  C13   D T 302       5.008   0.424  -9.310  1.00 13.78     0.026 A 
ENDBRANCH   1  10
TORSDOF 2
ENDMDL
MODEL 8
REMARK VINA RESULT:    -7.199      2.160      6.106
REMARK INTER + INTRA:          -8.292
REMARK INTER:                  -7.818
REMARK INTRA:                  -0.474
REMARK UNBOUND:                -0.251
REMARK  2 active torsions:
REMARK  status: ('A' for Active; 'I' for Inactive)
REMARK    1  A    between atoms: C5_4  and  O7_13 
REMARK    2  A    between atoms: C8_10  and  O7_13 
ROOT
HETATM    1  O7    D T 302       5.841   3.187  -6.740  1.00 12.29    -0.304 OA
ENDROOT
BRANCH   1   2
HETATM    2  C5    D T 302       6.070   2.735  -8.001  1.00 11.31     0.125 A 
HETATM    3  C6    D T 302       7.446   2.392  -8.376  1.00 10.91     0.154 A 
HETATM    4  C1    D T 302       7.680   1.937  -9.661  1.00 11.11     0.041 A 
HETATM    5  O17   D T 302       8.442   2.510  -7.467  1.00 10.71    -0.188 OA
HETATM    6  C2    D T 302       6.612   1.849 -10.556  1.00 11.31     0.060 A 
HETATM    7  C3    D T 302       5.318   2.178 -10.208  1.00 11.21     0.014 A 
HETATM    8 CL14   D T 302       6.896   1.276 -12.212  1.00 12.38    -0.082 Cl
HETATM    9  C4    D T 302       5.039   2.631  -8.923  1.00 11.12     0.028 A 
ENDBRANCH   1   2
BRANCH   1  10
HETATM   10  C8    D T 302       5.259   2.319  -5.869  1.00 13.41     0.111 A 
HETATM   11  C9    D T 302       4.062   2.750  -5.138  1.00 14.42     0.081 A 
HETATM   12  C10   D T 302       3.448   1.929  -4.224  1.00 15.02     0.025 A 
HETATM   13 CL16   D T 302       3.445   4.361  -5.437  1.00 16.61    -0.080 Cl
HETATM   14  C11   D T 302       3.988   0.678  -4.018  1.00 14.88     0.059 A 
HETATM   15  C12   D T 302       5.113   0.240  -4.690  1.00 14.38     0.013 A 
HETATM   16 CL15   D T 302       3.193  -0.373  -2.832  1.00 17.32    -0.082 Cl
HETATM   17  C13   D T 302       5.751   1.046  -5.612  1.00 13.78     0.026 A 
ENDBRANCH   1  10
TORSDOF 2
ENDMDL
MODEL 9
REMARK VINA RESULT:    -7.131      2.248      6.001
REMARK INTER + INTRA:          -8.215
REMARK INTER:                  -8.034
REMARK INTRA:                  -0.182
REMARK UNBOUND:                -0.251
REMARK  2 active torsions:
REMARK  status: ('A' for Active; 'I' for Inactive)
REMARK    1  A    between atoms: C5_4  and  O7_13 
REMARK    2  A    between atoms: C8_10  and  O7_13 
ROOT
HETATM    1  O7    D T 302       6.336   3.161  -7.123  1.00 12.29    -0.304 OA
ENDROOT
BRANCH   1   2
HETATM    2  C5    D T 302       6.544   2.706  -8.386  1.00 11.31     0.125 A 
HETATM    3  C6    D T 302       5.560   3.051  -9.418  1.00 10.91     0.154 A 
HETATM    4  C1    D T 302       5.770   2.584 -10.703  1.00 11.11     0.041 A 
HETATM    5  O17   D T 302       4.492   3.821  -9.103  1.00 10.71    -0.188 OA
HETATM    6  C2    D T 302       6.885   1.784 -10.963  1.00 11.31     0.060 A 
HETATM    7  C3    D T 302       7.807   1.453  -9.992  1.00 11.21     0.014 A 
HETATM    8 CL14   D T 302       7.164   1.168 -12.604  1.00 12.38    -0.082 Cl
HETATM    9  C4    D T 302       7.638   1.910  -8.688  1.00 11.12     0.028 A 
ENDBRANCH   1   2
BRANCH   1  10
HETATM   10  C8    D T 302       5.721   2.313  -6.254  1.00 13.41     0.111 A 
HETATM   11  C9    D T 302       4.523   2.775  -5.544  1.00 14.42     0.081 A 
HETATM   12  C10   D T 302       3.878   1.975  -4.634  1.00 15.02     0.025 A 
HETATM   13 CL16   D T 302       3.947   4.397  -5.865  1.00 16.61    -0.080 Cl
HETATM   14  C11   D T 302       4.387   0.714  -4.412  1.00 14.88     0.059 A 
HETATM   15  C12   D T 302       5.512   0.246  -5.062  1.00 14.38     0.013 A 
HETATM   16 CL15   D T 302       3.551  -0.311  -3.231  1.00 17.32    -0.082 Cl
HETATM   17  C13   D T 302       6.181   1.031  -5.981  1.00 13.78     0.026 A 
ENDBRANCH   1  10
TORSDOF 2
ENDMDL
