MODEL 1
REMARK VINA RESULT:    -9.978      0.000      0.000
REMARK INTER + INTRA:         -11.281
REMARK INTER:                 -11.145
REMARK INTRA:                  -0.136
REMARK UNBOUND:                -0.136
REMARK  2 active torsions:
REMARK  status: ('A' for Active; 'I' for Inactive)
REMARK    1  A    between atoms: CAX_24  and  NBD_30 
REMARK    2  A    between atoms: CAY_25  and  CAZ_26 
ROOT
HETATM    1  CAE   D T 501     -11.523   0.960  -8.187  1.00 28.11     0.002 A 
HETATM    2  CAF   D T 501     -13.786   0.782  -7.376  1.00 31.06     0.002 A 
HETATM    3  CAG   D T 501     -11.761  -0.119  -9.054  1.00 28.67     0.017 A 
HETATM    4  CAH   D T 501     -14.015  -0.313  -8.220  1.00 30.46     0.017 A 
HETATM    5  CAK   D T 501     -13.362   3.255  -5.860  1.00 23.78     0.102 A 
HETATM    6  CAL   D T 501      -9.902   5.296  -3.720  1.00 24.69     0.124 A 
HETATM    7  CAM   D T 501     -11.031   2.770  -6.062  1.00 24.63     0.104 A 
HETATM    8  NAS   D T 501     -13.077   4.230  -4.971  1.00 20.85    -0.225 NA
HETATM    9  NAT   D T 501      -9.488   4.314  -4.566  1.00 25.16    -0.162 NA
HETATM   10  CAV   D T 501     -12.547   1.431  -7.362  1.00 25.80     0.003 A 
HETATM   11  CAW   D T 501     -12.325   2.502  -6.458  1.00 25.02     0.038 A 
HETATM   12  CAX   D T 501     -12.987  -0.775  -9.049  1.00 27.25     0.056 A 
HETATM   13  CAZ   D T 501     -11.162   5.324  -3.794  1.00 24.84     0.057 A 
HETATM   14  CBC   D T 501     -11.808   4.501  -4.608  1.00 23.94     0.165 A 
HETATM   15  NBE   D T 501     -10.770   3.749  -5.178  1.00 26.21    -0.211 N 
ENDROOT
BRANCH  13  16
HETATM   16  CAY   D T 501     -11.787   6.321  -2.978  1.00 23.50     0.007 A 
HETATM   17  CAD   D T 501     -11.487   7.630  -3.225  1.00 28.61     0.021 A 
HETATM   18  CAC   D T 501     -12.030   8.641  -2.454  1.00 31.28     0.099 A 
HETATM   19  NAR   D T 501     -12.850   8.394  -1.445  1.00 29.97    -0.244 NA
HETATM   20  CBA   D T 501     -13.197   7.143  -1.139  1.00 29.39     0.081 A 
HETATM   21  CAI   D T 501     -14.069   6.890  -0.066  1.00 24.64     0.019 A 
HETATM   22  CBB   D T 501     -12.658   6.040  -1.889  1.00 25.45     0.018 A 
HETATM   23  CAA   D T 501     -14.398   5.602   0.263  1.00 25.05     0.002 A 
HETATM   24  CAB   D T 501     -13.894   4.538  -0.445  1.00 24.88     0.000 A 
HETATM   25  CAJ   D T 501     -13.022   4.743  -1.505  1.00 27.86     0.002 A 
ENDBRANCH  13  16
BRANCH  12  26
HETATM   26  NBD   D T 501     -13.215  -1.940  -9.953  1.00 33.43    -0.344 N 
HETATM   27  CAP   D T 501     -14.406  -1.884 -10.804  1.00 26.51     0.140 C 
HETATM   28  CAN   D T 501     -15.562  -2.556  -9.991  1.00 28.69     0.314 C 
HETATM   29  NAU   D T 501     -15.179  -3.836  -9.503  1.00 26.40     0.343 N 
HETATM   30  CAO   D T 501     -14.013  -3.819  -8.658  1.00 27.47     0.314 C 
HETATM   31  CAQ   D T 501     -12.824  -3.236  -9.442  1.00 29.57     0.140 C 
ENDBRANCH  12  26
TORSDOF 2
ENDMDL
MODEL 2
REMARK VINA RESULT:    -9.519      3.449      9.304
REMARK INTER + INTRA:         -10.768
REMARK INTER:                 -10.975
REMARK INTRA:                   0.207
REMARK UNBOUND:                -0.136
REMARK  2 active torsions:
REMARK  status: ('A' for Active; 'I' for Inactive)
REMARK    1  A    between atoms: CAX_24  and  NBD_30 
REMARK    2  A    between atoms: CAY_25  and  CAZ_26 
ROOT
HETATM    1  CAE   D T 501     -15.453   6.422  -0.427  1.00 28.11     0.002 A 
HETATM    2  CAF   D T 501     -16.596   4.632  -1.567  1.00 31.06     0.002 A 
HETATM    3  CAG   D T 501     -16.628   6.702   0.289  1.00 28.67     0.017 A 
HETATM    4  CAH   D T 501     -17.778   4.929  -0.874  1.00 30.46     0.017 A 
HETATM    5  CAK   D T 501     -14.034   3.853  -2.761  1.00 23.78     0.102 A 
HETATM    6  CAL   D T 501     -10.248   5.944  -4.177  1.00 24.69     0.124 A 
HETATM    7  CAM   D T 501     -13.331   6.084  -2.275  1.00 24.63     0.104 A 
HETATM    8  NAS   D T 501     -12.922   3.669  -3.502  1.00 20.85    -0.225 NA
HETATM    9  NAT   D T 501     -11.016   6.736  -3.379  1.00 25.16    -0.162 NA
HETATM   10  CAV   D T 501     -15.427   5.366  -1.341  1.00 25.80     0.003 A 
HETATM   11  CAW   D T 501     -14.261   5.080  -2.096  1.00 25.02     0.038 A 
HETATM   12  CAX   D T 501     -17.795   5.984   0.045  1.00 27.25     0.056 A 
HETATM   13  CAZ   D T 501     -10.857   4.843  -4.281  1.00 24.84     0.057 A 
HETATM   14  CBC   D T 501     -12.007   4.647  -3.652  1.00 23.94     0.165 A 
HETATM   15  NBE   D T 501     -12.227   5.876  -3.015  1.00 26.21    -0.211 N 
ENDROOT
BRANCH  13  16
HETATM   16  CAY   D T 501     -10.186   3.862  -5.079  1.00 23.50     0.007 A 
HETATM   17  CAD   D T 501      -8.845   3.687  -4.884  1.00 28.61     0.021 A 
HETATM   18  CAC   D T 501      -8.130   2.780  -5.642  1.00 31.28     0.099 A 
HETATM   19  NAR   D T 501      -8.697   2.050  -6.589  1.00 29.97    -0.244 NA
HETATM   20  CBA   D T 501     -10.003   2.156  -6.841  1.00 29.39     0.081 A 
HETATM   21  CAI   D T 501     -10.598   1.377  -7.848  1.00 24.64     0.019 A 
HETATM   22  CBB   D T 501     -10.807   3.092  -6.102  1.00 25.45     0.018 A 
HETATM   23  CAA   D T 501     -11.932   1.513  -8.123  1.00 25.05     0.002 A 
HETATM   24  CAB   D T 501     -12.715   2.399  -7.424  1.00 24.88     0.000 A 
HETATM   25  CAJ   D T 501     -12.165   3.196  -6.428  1.00 27.86     0.002 A 
ENDBRANCH  13  16
BRANCH  12  26
HETATM   26  NBD   D T 501     -19.045   6.312   0.790  1.00 33.43    -0.344 N 
HETATM   27  CAP   D T 501     -20.214   5.477   0.508  1.00 26.51     0.140 C 
HETATM   28  CAN   D T 501     -20.980   6.173  -0.666  1.00 28.69     0.314 C 
HETATM   29  NAU   D T 501     -21.222   7.546  -0.387  1.00 26.40     0.343 N 
HETATM   30  CAO   D T 501     -20.031   8.315  -0.136  1.00 27.47     0.314 C 
HETATM   31  CAQ   D T 501     -19.280   7.713   1.064  1.00 29.57     0.140 C 
ENDBRANCH  12  26
TORSDOF 2
ENDMDL
MODEL 3
REMARK VINA RESULT:    -9.481      4.602      7.041
REMARK INTER + INTRA:         -10.726
REMARK INTER:                 -10.308
REMARK INTRA:                  -0.418
REMARK UNBOUND:                -0.136
REMARK  2 active torsions:
REMARK  status: ('A' for Active; 'I' for Inactive)
REMARK    1  A    between atoms: CAX_24  and  NBD_30 
REMARK    2  A    between atoms: CAY_25  and  CAZ_26 
ROOT
HETATM    1  CAE   D T 501     -13.532   2.397  -5.925  1.00 28.11     0.002 A 
HETATM    2  CAF   D T 501     -12.445   3.766  -4.265  1.00 31.06     0.002 A 
HETATM    3  CAG   D T 501     -12.345   2.384  -6.676  1.00 28.67     0.017 A 
HETATM    4  CAH   D T 501     -11.270   3.779  -5.028  1.00 30.46     0.017 A 
HETATM    5  CAK   D T 501     -14.814   3.459  -2.565  1.00 23.78     0.102 A 
HETATM    6  CAL   D T 501     -19.305   3.027  -3.158  1.00 24.69     0.124 A 
HETATM    7  CAM   D T 501     -15.973   2.916  -4.582  1.00 24.63     0.104 A 
HETATM    8  NAS   D T 501     -15.993   3.534  -1.912  1.00 20.85    -0.225 NA
HETATM    9  NAT   D T 501     -18.602   2.794  -4.300  1.00 25.16    -0.162 NA
HETATM   10  CAV   D T 501     -13.577   3.069  -4.701  1.00 25.80     0.003 A 
HETATM   11  CAW   D T 501     -14.771   3.118  -3.936  1.00 25.02     0.038 A 
HETATM   12  CAX   D T 501     -11.230   3.098  -6.250  1.00 27.25     0.056 A 
HETATM   13  CAZ   D T 501     -18.457   3.307  -2.266  1.00 24.84     0.057 A 
HETATM   14  CBC   D T 501     -17.161   3.310  -2.545  1.00 23.94     0.165 A 
HETATM   15  NBE   D T 501     -17.136   2.990  -3.910  1.00 26.21    -0.211 N 
ENDROOT
BRANCH  13  16
HETATM   16  CAY   D T 501     -19.013   3.569  -0.972  1.00 23.50     0.007 A 
HETATM   17  CAD   D T 501     -19.124   4.871  -0.576  1.00 28.61     0.021 A 
HETATM   18  CAC   D T 501     -19.622   5.193   0.673  1.00 31.28     0.099 A 
HETATM   19  NAR   D T 501     -20.003   4.268   1.539  1.00 29.97    -0.244 NA
HETATM   20  CBA   D T 501     -19.931   2.973   1.229  1.00 29.39     0.081 A 
HETATM   21  CAI   D T 501     -20.337   1.997   2.155  1.00 24.64     0.019 A 
HETATM   22  CBB   D T 501     -19.407   2.564  -0.047  1.00 25.45     0.018 A 
HETATM   23  CAA   D T 501     -20.232   0.668   1.843  1.00 25.05     0.002 A 
HETATM   24  CAB   D T 501     -19.738   0.260   0.628  1.00 24.88     0.000 A 
HETATM   25  CAJ   D T 501     -19.315   1.191  -0.311  1.00 27.86     0.002 A 
ENDBRANCH  13  16
BRANCH  12  26
HETATM   26  NBD   D T 501      -9.986   3.102  -7.073  1.00 33.43    -0.344 N 
HETATM   27  CAP   D T 501      -9.906   2.106  -8.144  1.00 26.51     0.140 C 
HETATM   28  CAN   D T 501      -9.237   0.837  -7.516  1.00 28.69     0.314 C 
HETATM   29  NAU   D T 501      -8.024   1.164  -6.850  1.00 26.40     0.343 N 
HETATM   30  CAO   D T 501      -8.174   2.135  -5.798  1.00 27.47     0.314 C 
HETATM   31  CAQ   D T 501      -8.759   3.434  -6.382  1.00 29.57     0.140 C 
ENDBRANCH  12  26
TORSDOF 2
ENDMDL
MODEL 4
REMARK VINA RESULT:    -8.954      2.262      3.789
REMARK INTER + INTRA:         -10.137
REMARK INTER:                 -11.296
REMARK INTRA:                   1.160
REMARK UNBOUND:                -0.136
REMARK  2 active torsions:
REMARK  status: ('A' for Active; 'I' for Inactive)
REMARK    1  A    between atoms: CAX_24  and  NBD_30 
REMARK    2  A    between atoms: CAY_25  and  CAZ_26 
ROOT
HETATM    1  CAE   D T 501     -11.560  -1.222 -10.430  1.00 28.11     0.002 A 
HETATM    2  CAF   D T 501     -13.562  -1.899  -9.272  1.00 31.06     0.002 A 
HETATM    3  CAG   D T 501     -11.711  -2.311 -11.305  1.00 28.67     0.017 A 
HETATM    4  CAH   D T 501     -13.697  -3.003 -10.125  1.00 30.46     0.017 A 
HETATM    5  CAK   D T 501     -13.412   0.579  -7.713  1.00 23.78     0.102 A 
HETATM    6  CAL   D T 501     -10.142   3.279  -6.060  1.00 24.69     0.124 A 
HETATM    7  CAM   D T 501     -11.101   0.612  -8.319  1.00 24.63     0.104 A 
HETATM    8  NAS   D T 501     -13.189   1.576  -6.831  1.00 20.85    -0.225 NA
HETATM    9  NAT   D T 501      -9.682   2.425  -7.014  1.00 25.16    -0.162 NA
HETATM   10  CAV   D T 501     -12.503  -0.999  -9.425  1.00 25.80     0.003 A 
HETATM   11  CAW   D T 501     -12.359   0.078  -8.513  1.00 25.02     0.038 A 
HETATM   12  CAX   D T 501     -12.753  -3.217 -11.135  1.00 27.25     0.056 A 
HETATM   13  CAZ   D T 501     -11.374   3.037  -5.926  1.00 24.84     0.057 A 
HETATM   14  CBC   D T 501     -11.962   2.108  -6.666  1.00 23.94     0.165 A 
HETATM   15  NBE   D T 501     -10.904   1.608  -7.438  1.00 26.21    -0.211 N 
ENDROOT
BRANCH  13  16
HETATM   16  CAY   D T 501     -12.045   3.860  -4.965  1.00 23.50     0.007 A 
HETATM   17  CAD   D T 501     -13.395   3.710  -4.827  1.00 28.61     0.021 A 
HETATM   18  CAC   D T 501     -14.110   4.495  -3.941  1.00 31.28     0.099 A 
HETATM   19  NAR   D T 501     -13.532   5.424  -3.198  1.00 29.97    -0.244 NA
HETATM   20  CBA   D T 501     -12.216   5.632  -3.270  1.00 29.39     0.081 A 
HETATM   21  CAI   D T 501     -11.609   6.622  -2.477  1.00 24.64     0.019 A 
HETATM   22  CBB   D T 501     -11.411   4.864  -4.181  1.00 25.45     0.018 A 
HETATM   23  CAA   D T 501     -10.263   6.852  -2.576  1.00 25.05     0.002 A 
HETATM   24  CAB   D T 501      -9.480   6.124  -3.439  1.00 24.88     0.000 A 
HETATM   25  CAJ   D T 501     -10.040   5.145  -4.248  1.00 27.86     0.002 A 
ENDBRANCH  13  16
BRANCH  12  26
HETATM   26  NBD   D T 501     -12.884  -4.387 -12.051  1.00 33.43    -0.344 N 
HETATM   27  CAP   D T 501     -11.917  -4.471 -13.148  1.00 26.51     0.140 C 
HETATM   28  CAN   D T 501     -12.558  -3.715 -14.360  1.00 28.69     0.314 C 
HETATM   29  NAU   D T 501     -13.874  -4.182 -14.626  1.00 26.40     0.343 N 
HETATM   30  CAO   D T 501     -14.779  -4.055 -13.514  1.00 27.47     0.314 C 
HETATM   31  CAQ   D T 501     -14.229  -4.848 -12.316  1.00 29.57     0.140 C 
ENDBRANCH  12  26
TORSDOF 2
ENDMDL
MODEL 5
REMARK VINA RESULT:    -8.746      1.869     10.531
REMARK INTER + INTRA:          -9.905
REMARK INTER:                  -9.665
REMARK INTRA:                  -0.241
REMARK UNBOUND:                -0.136
REMARK  2 active torsions:
REMARK  status: ('A' for Active; 'I' for Inactive)
REMARK    1  A    between atoms: CAX_24  and  NBD_30 
REMARK    2  A    between atoms: CAY_25  and  CAZ_26 
ROOT
HETATM    1  CAE   D T 501     -13.289   3.298  -4.644  1.00 28.11     0.002 A 
HETATM    2  CAF   D T 501     -11.146   3.313  -5.747  1.00 31.06     0.002 A 
HETATM    3  CAG   D T 501     -12.829   4.287  -3.760  1.00 28.67     0.017 A 
HETATM    4  CAH   D T 501     -10.676   4.279  -4.847  1.00 30.46     0.017 A 
HETATM    5  CAK   D T 501     -12.264   1.528  -7.787  1.00 23.78     0.102 A 
HETATM    6  CAL   D T 501     -15.341  -1.821  -7.955  1.00 24.69     0.124 A 
HETATM    7  CAM   D T 501     -13.914   0.979  -6.149  1.00 24.63     0.104 A 
HETATM    8  NAS   D T 501     -12.700   0.512  -8.560  1.00 20.85    -0.225 NA
HETATM    9  NAT   D T 501     -15.437  -1.080  -6.818  1.00 25.16    -0.162 NA
HETATM   10  CAV   D T 501     -12.454   2.826  -5.660  1.00 25.80     0.003 A 
HETATM   11  CAW   D T 501     -12.886   1.808  -6.549  1.00 25.02     0.038 A 
HETATM   12  CAX   D T 501     -11.520   4.752  -3.837  1.00 27.25     0.056 A 
HETATM   13  CAZ   D T 501     -14.388  -1.332  -8.623  1.00 24.84     0.057 A 
HETATM   14  CBC   D T 501     -13.720  -0.278  -8.172  1.00 23.94     0.165 A 
HETATM   15  NBE   D T 501     -14.335  -0.025  -6.938  1.00 26.21    -0.211 N 
ENDROOT
BRANCH  13  16
HETATM   16  CAY   D T 501     -14.143  -1.977  -9.878  1.00 23.50     0.007 A 
HETATM   17  CAD   D T 501     -13.100  -2.856  -9.952  1.00 28.61     0.021 A 
HETATM   18  CAC   D T 501     -12.788  -3.489 -11.140  1.00 31.28     0.099 A 
HETATM   19  NAR   D T 501     -13.468  -3.271 -12.255  1.00 29.97    -0.244 NA
HETATM   20  CBA   D T 501     -14.503  -2.430 -12.267  1.00 29.39     0.081 A 
HETATM   21  CAI   D T 501     -15.220  -2.204 -13.455  1.00 24.64     0.019 A 
HETATM   22  CBB   D T 501     -14.875  -1.723 -11.071  1.00 25.45     0.018 A 
HETATM   23  CAA   D T 501     -16.263  -1.316 -13.470  1.00 25.05     0.002 A 
HETATM   24  CAB   D T 501     -16.633  -0.636 -12.335  1.00 24.88     0.000 A 
HETATM   25  CAJ   D T 501     -15.945  -0.822 -11.143  1.00 27.86     0.002 A 
ENDBRANCH  13  16
BRANCH  12  26
HETATM   26  NBD   D T 501     -11.034   5.781  -2.871  1.00 33.43    -0.344 N 
HETATM   27  CAP   D T 501     -11.649   5.773  -1.542  1.00 26.51     0.140 C 
HETATM   28  CAN   D T 501     -12.883   6.733  -1.622  1.00 28.69     0.314 C 
HETATM   29  NAU   D T 501     -12.522   8.000  -2.157  1.00 26.40     0.343 N 
HETATM   30  CAO   D T 501     -11.939   7.940  -3.472  1.00 27.47     0.314 C 
HETATM   31  CAQ   D T 501     -10.673   7.066  -3.429  1.00 29.57     0.140 C 
ENDBRANCH  12  26
TORSDOF 2
ENDMDL
MODEL 6
REMARK VINA RESULT:    -8.699      1.703      2.313
REMARK INTER + INTRA:          -9.852
REMARK INTER:                 -10.281
REMARK INTRA:                   0.429
REMARK UNBOUND:                -0.136
REMARK  2 active torsions:
REMARK  status: ('A' for Active; 'I' for Inactive)
REMARK    1  A    between atoms: CAX_24  and  NBD_30 
REMARK    2  A    between atoms: CAY_25  and  CAZ_26 
ROOT
HETATM    1  CAE   D T 501     -11.513  -0.257  -9.409  1.00 28.11     0.002 A 
HETATM    2  CAF   D T 501     -13.770  -0.260  -8.564  1.00 31.06     0.002 A 
HETATM    3  CAG   D T 501     -11.849  -1.307 -10.281  1.00 28.67     0.017 A 
HETATM    4  CAH   D T 501     -14.099  -1.327  -9.411  1.00 30.46     0.017 A 
HETATM    5  CAK   D T 501     -13.125   2.159  -7.037  1.00 23.78     0.102 A 
HETATM    6  CAL   D T 501      -9.480   3.899  -4.940  1.00 24.69     0.124 A 
HETATM    7  CAM   D T 501     -10.844   1.490  -7.280  1.00 24.63     0.104 A 
HETATM    8  NAS   D T 501     -12.750   3.100  -6.146  1.00 20.85    -0.225 NA
HETATM    9  NAT   D T 501      -9.159   2.893  -5.799  1.00 25.16    -0.162 NA
HETATM   10  CAV   D T 501     -12.483   0.287  -8.565  1.00 25.80     0.003 A 
HETATM   11  CAW   D T 501     -12.162   1.329  -7.657  1.00 25.02     0.038 A 
HETATM   12  CAX   D T 501     -13.124  -1.863 -10.260  1.00 27.25     0.056 A 
HETATM   13  CAZ   D T 501     -10.735   4.028  -4.993  1.00 24.84     0.057 A 
HETATM   14  CBC   D T 501     -11.458   3.265  -5.802  1.00 23.94     0.165 A 
HETATM   15  NBE   D T 501     -10.492   2.438  -6.394  1.00 26.21    -0.211 N 
ENDROOT
BRANCH  13  16
HETATM   16  CAY   D T 501     -11.266   5.065  -4.160  1.00 23.50     0.007 A 
HETATM   17  CAD   D T 501     -10.568   6.236  -4.073  1.00 28.61     0.021 A 
HETATM   18  CAC   D T 501     -11.006   7.266  -3.262  1.00 31.28     0.099 A 
HETATM   19  NAR   D T 501     -12.105   7.168  -2.531  1.00 29.97    -0.244 NA
HETATM   20  CBA   D T 501     -12.846   6.059  -2.561  1.00 29.39     0.081 A 
HETATM   21  CAI   D T 501     -14.012   5.963  -1.781  1.00 24.64     0.019 A 
HETATM   22  CBB   D T 501     -12.442   4.941  -3.370  1.00 25.45     0.018 A 
HETATM   23  CAA   D T 501     -14.753   4.812  -1.792  1.00 25.05     0.002 A 
HETATM   24  CAB   D T 501     -14.383   3.736  -2.562  1.00 24.88     0.000 A 
HETATM   25  CAJ   D T 501     -13.233   3.785  -3.339  1.00 27.86     0.002 A 
ENDBRANCH  13  16
BRANCH  12  26
HETATM   26  NBD   D T 501     -13.459  -2.998 -11.168  1.00 33.43    -0.344 N 
HETATM   27  CAP   D T 501     -12.423  -3.402 -12.121  1.00 26.51     0.140 C 
HETATM   28  CAN   D T 501     -12.668  -2.564 -13.420  1.00 28.69     0.314 C 
HETATM   29  NAU   D T 501     -14.017  -2.664 -13.857  1.00 26.40     0.343 N 
HETATM   30  CAO   D T 501     -14.985  -2.235 -12.880  1.00 27.47     0.314 C 
HETATM   31  CAQ   D T 501     -14.835  -3.085 -11.607  1.00 29.57     0.140 C 
ENDBRANCH  12  26
TORSDOF 2
ENDMDL
MODEL 7
REMARK VINA RESULT:    -8.421      5.310     10.081
REMARK INTER + INTRA:          -9.542
REMARK INTER:                  -9.328
REMARK INTRA:                  -0.214
REMARK UNBOUND:                -0.136
REMARK  2 active torsions:
REMARK  status: ('A' for Active; 'I' for Inactive)
REMARK    1  A    between atoms: CAX_24  and  NBD_30 
REMARK    2  A    between atoms: CAY_25  and  CAZ_26 
ROOT
HETATM    1  CAE   D T 501     -19.137   4.528  -2.321  1.00 28.11     0.002 A 
HETATM    2  CAF   D T 501     -19.810   4.690  -4.630  1.00 31.06     0.002 A 
HETATM    3  CAG   D T 501     -20.235   5.325  -1.956  1.00 28.67     0.017 A 
HETATM    4  CAH   D T 501     -20.889   5.509  -4.271  1.00 30.46     0.017 A 
HETATM    5  CAK   D T 501     -17.731   2.734  -5.299  1.00 23.78     0.102 A 
HETATM    6  CAL   D T 501     -13.579   1.641  -3.789  1.00 24.69     0.124 A 
HETATM    7  CAM   D T 501     -16.715   3.372  -3.232  1.00 24.63     0.104 A 
HETATM    8  NAS   D T 501     -16.616   2.049  -5.630  1.00 20.85    -0.225 NA
HETATM    9  NAT   D T 501     -14.271   2.412  -2.906  1.00 25.16    -0.162 NA
HETATM   10  CAV   D T 501     -18.936   4.187  -3.661  1.00 25.80     0.003 A 
HETATM   11  CAW   D T 501     -17.820   3.407  -4.058  1.00 25.02     0.038 A 
HETATM   12  CAX   D T 501     -21.088   5.841  -2.926  1.00 27.25     0.056 A 
HETATM   13  CAZ   D T 501     -14.334   1.475  -4.787  1.00 24.84     0.057 A 
HETATM   14  CBC   D T 501     -15.551   2.001  -4.806  1.00 23.94     0.165 A 
HETATM   15  NBE   D T 501     -15.617   2.678  -3.581  1.00 26.21    -0.211 N 
ENDROOT
BRANCH  13  16
HETATM   16  CAY   D T 501     -13.779   0.664  -5.828  1.00 23.50     0.007 A 
HETATM   17  CAD   D T 501     -14.321  -0.574  -6.032  1.00 28.61     0.021 A 
HETATM   18  CAC   D T 501     -13.813  -1.421  -6.998  1.00 31.28     0.099 A 
HETATM   19  NAR   D T 501     -12.784  -1.085  -7.760  1.00 29.97    -0.244 NA
HETATM   20  CBA   D T 501     -12.200   0.106  -7.628  1.00 29.39     0.081 A 
HETATM   21  CAI   D T 501     -11.107   0.456  -8.441  1.00 24.64     0.019 A 
HETATM   22  CBB   D T 501     -12.665   1.033  -6.631  1.00 25.45     0.018 A 
HETATM   23  CAA   D T 501     -10.491   1.668  -8.281  1.00 25.05     0.002 A 
HETATM   24  CAB   D T 501     -10.925   2.566  -7.336  1.00 24.88     0.000 A 
HETATM   25  CAJ   D T 501     -11.994   2.257  -6.505  1.00 27.86     0.002 A 
ENDBRANCH  13  16
BRANCH  12  26
HETATM   26  NBD   D T 501     -22.233   6.712  -2.528  1.00 33.43    -0.344 N 
HETATM   27  CAP   D T 501     -22.783   7.585  -3.566  1.00 26.51     0.140 C 
HETATM   28  CAN   D T 501     -21.996   8.935  -3.471  1.00 28.69     0.314 C 
HETATM   29  NAU   D T 501     -21.989   9.440  -2.141  1.00 26.40     0.343 N 
HETATM   30  CAO   D T 501     -21.419   8.540  -1.173  1.00 27.47     0.314 C 
HETATM   31  CAQ   D T 501     -22.211   7.221  -1.174  1.00 29.57     0.140 C 
ENDBRANCH  12  26
TORSDOF 2
ENDMDL
MODEL 8
REMARK VINA RESULT:    -8.420      5.154     10.089
REMARK INTER + INTRA:          -9.540
REMARK INTER:                  -9.047
REMARK INTRA:                  -0.493
REMARK UNBOUND:                -0.136
REMARK  2 active torsions:
REMARK  status: ('A' for Active; 'I' for Inactive)
REMARK    1  A    between atoms: CAX_24  and  NBD_30 
REMARK    2  A    between atoms: CAY_25  and  CAZ_26 
ROOT
HETATM    1  CAE   D T 501     -18.762   4.371  -2.187  1.00 28.11     0.002 A 
HETATM    2  CAF   D T 501     -19.661   4.474  -4.421  1.00 31.06     0.002 A 
HETATM    3  CAG   D T 501     -19.866   5.105  -1.721  1.00 28.67     0.017 A 
HETATM    4  CAH   D T 501     -20.747   5.231  -3.962  1.00 30.46     0.017 A 
HETATM    5  CAK   D T 501     -17.543   2.638  -5.280  1.00 23.78     0.102 A 
HETATM    6  CAL   D T 501     -13.208   1.803  -4.171  1.00 24.69     0.124 A 
HETATM    7  CAM   D T 501     -16.374   3.351  -3.322  1.00 24.63     0.104 A 
HETATM    8  NAS   D T 501     -16.426   2.016  -5.714  1.00 20.85    -0.225 NA
HETATM    9  NAT   D T 501     -13.857   2.539  -3.228  1.00 25.16    -0.162 NA
HETATM   10  CAV   D T 501     -18.670   4.031  -3.538  1.00 25.80     0.003 A 
HETATM   11  CAW   D T 501     -17.553   3.314  -4.038  1.00 25.02     0.038 A 
HETATM   12  CAX   D T 501     -20.837   5.562  -2.606  1.00 27.25     0.056 A 
HETATM   13  CAZ   D T 501     -14.044   1.585  -5.092  1.00 24.84     0.057 A 
HETATM   14  CBC   D T 501     -15.286   2.037  -4.996  1.00 23.94     0.165 A 
HETATM   15  NBE   D T 501     -15.275   2.720  -3.772  1.00 26.21    -0.211 N 
ENDROOT
BRANCH  13  16
HETATM   16  CAY   D T 501     -13.544   0.798  -6.179  1.00 23.50     0.007 A 
HETATM   17  CAD   D T 501     -12.693   1.398  -7.064  1.00 28.61     0.021 A 
HETATM   18  CAC   D T 501     -12.199   0.707  -8.154  1.00 31.28     0.099 A 
HETATM   19  NAR   D T 501     -12.527  -0.552  -8.398  1.00 29.97    -0.244 NA
HETATM   20  CBA   D T 501     -13.350  -1.212  -7.582  1.00 29.39     0.081 A 
HETATM   21  CAI   D T 501     -13.694  -2.548  -7.849  1.00 24.64     0.019 A 
HETATM   22  CBB   D T 501     -13.915  -0.550  -6.436  1.00 25.45     0.018 A 
HETATM   23  CAA   D T 501     -14.562  -3.212  -7.024  1.00 25.05     0.002 A 
HETATM   24  CAB   D T 501     -15.109  -2.596  -5.924  1.00 24.88     0.000 A 
HETATM   25  CAJ   D T 501     -14.804  -1.274  -5.630  1.00 27.86     0.002 A 
ENDBRANCH  13  16
BRANCH  12  26
HETATM   26  NBD   D T 501     -21.987   6.367  -2.102  1.00 33.43    -0.344 N 
HETATM   27  CAP   D T 501     -22.746   7.123  -3.102  1.00 26.51     0.140 C 
HETATM   28  CAN   D T 501     -22.071   8.532  -3.195  1.00 28.69     0.314 C 
HETATM   29  NAU   D T 501     -21.929   9.126  -1.911  1.00 26.40     0.343 N 
HETATM   30  CAO   D T 501     -21.159   8.342  -0.981  1.00 27.47     0.314 C 
HETATM   31  CAQ   D T 501     -21.828   6.969  -0.796  1.00 29.57     0.140 C 
ENDBRANCH  12  26
TORSDOF 2
ENDMDL
MODEL 9
REMARK VINA RESULT:    -8.292      2.487     11.022
REMARK INTER + INTRA:          -9.398
REMARK INTER:                  -9.045
REMARK INTRA:                  -0.353
REMARK UNBOUND:                -0.136
REMARK  2 active torsions:
REMARK  status: ('A' for Active; 'I' for Inactive)
REMARK    1  A    between atoms: CAX_24  and  NBD_30 
REMARK    2  A    between atoms: CAY_25  and  CAZ_26 
ROOT
HETATM    1  CAE   D T 501     -14.100   0.544  -4.968  1.00 28.11     0.002 A 
HETATM    2  CAF   D T 501     -13.015   2.042  -6.514  1.00 31.06     0.002 A 
HETATM    3  CAG   D T 501     -13.924   1.490  -3.944  1.00 28.67     0.017 A 
HETATM    4  CAH   D T 501     -12.812   2.974  -5.487  1.00 30.46     0.017 A 
HETATM    5  CAK   D T 501     -13.730   0.205  -8.684  1.00 23.78     0.102 A 
HETATM    6  CAL   D T 501     -14.234  -4.287  -9.213  1.00 24.69     0.124 A 
HETATM    7  CAM   D T 501     -13.941  -1.451  -6.975  1.00 24.63     0.104 A 
HETATM    8  NAS   D T 501     -13.827  -0.759  -9.623  1.00 20.85    -0.225 NA
HETATM    9  NAT   D T 501     -14.223  -3.913  -7.905  1.00 25.16    -0.162 NA
HETATM   10  CAV   D T 501     -13.667   0.830  -6.265  1.00 25.80     0.003 A 
HETATM   11  CAW   D T 501     -13.810  -0.119  -7.310  1.00 25.02     0.038 A 
HETATM   12  CAX   D T 501     -13.254   2.684  -4.192  1.00 27.25     0.056 A 
HETATM   13  CAZ   D T 501     -14.088  -3.231  -9.889  1.00 24.84     0.057 A 
HETATM   14  CBC   D T 501     -13.979  -2.055  -9.287  1.00 23.94     0.165 A 
HETATM   15  NBE   D T 501     -14.041  -2.394  -7.928  1.00 26.21    -0.211 N 
ENDROOT
BRANCH  13  16
HETATM   16  CAY   D T 501     -14.093  -3.423 -11.308  1.00 23.50     0.007 A 
HETATM   17  CAD   D T 501     -15.208  -3.973 -11.875  1.00 28.61     0.021 A 
HETATM   18  CAC   D T 501     -15.268  -4.215 -13.234  1.00 31.28     0.099 A 
HETATM   19  NAR   D T 501     -14.258  -3.940 -14.044  1.00 29.97    -0.244 NA
HETATM   20  CBA   D T 501     -13.134  -3.399 -13.572  1.00 29.39     0.081 A 
HETATM   21  CAI   D T 501     -12.066  -3.110 -14.439  1.00 24.64     0.019 A 
HETATM   22  CBB   D T 501     -12.995  -3.134 -12.165  1.00 25.45     0.018 A 
HETATM   23  CAA   D T 501     -10.903  -2.583 -13.945  1.00 25.05     0.002 A 
HETATM   24  CAB   D T 501     -10.755  -2.320 -12.604  1.00 24.88     0.000 A 
HETATM   25  CAJ   D T 501     -11.782  -2.600 -11.712  1.00 27.86     0.002 A 
ENDBRANCH  13  16
BRANCH  12  26
HETATM   26  NBD   D T 501     -13.046   3.666  -3.088  1.00 33.43    -0.344 N 
HETATM   27  CAP   D T 501     -13.829   3.456  -1.868  1.00 26.51     0.140 C 
HETATM   28  CAN   D T 501     -15.158   4.261  -2.053  1.00 28.69     0.314 C 
HETATM   29  NAU   D T 501     -14.902   5.608  -2.428  1.00 26.40     0.343 N 
HETATM   30  CAO   D T 501     -14.145   5.746  -3.644  1.00 27.47     0.314 C 
HETATM   31  CAQ   D T 501     -12.790   5.034  -3.485  1.00 29.57     0.140 C 
ENDBRANCH  12  26
TORSDOF 2
ENDMDL
