MODEL 1
REMARK VINA RESULT:    -8.958      0.000      0.000
REMARK INTER + INTRA:         -12.685
REMARK INTER:                 -11.576
REMARK INTRA:                  -1.109
REMARK UNBOUND:                -1.109
REMARK  10 active torsions:
REMARK  status: ('A' for Active; 'I' for Inactive)
REMARK    1  A    between atoms: C1_1  and  C21_25 
REMARK    2  A    between atoms: N1_14  and  C13_15 
REMARK    3  A    between atoms: C13_15  and  C14_16 
REMARK    4  A    between atoms: C14_16  and  C15_17 
REMARK    5  A    between atoms: C15_17  and  N2_18 
REMARK    6  A    between atoms: C1_29  and  C21_53 
REMARK    7  A    between atoms: N1_42  and  C13_43 
REMARK    8  A    between atoms: C13_43  and  C14_44 
REMARK    9  A    between atoms: C14_44  and  C15_45 
REMARK   10  A    between atoms: C15_45  and  N2_46 
ROOT
HETATM    1  C1    D T 153      -4.848  -0.442  10.859  0.85 32.23     0.073 C 
HETATM    2  C2    D T 153      -5.985  -1.036  10.313  0.85 32.23     0.004 C 
HETATM    3  C3    D T 153      -5.872  -2.282   9.745  0.85 32.23     0.008 C 
HETATM    4  C4    D T 153      -4.791  -3.086  10.061  0.85 32.23     0.045 C 
HETATM    5  C5    D T 153      -3.691  -2.564  10.757  0.85 32.23     0.066 C 
HETATM    6  C6    D T 153      -3.707  -1.203  11.129  0.85 32.23     0.022 C 
HETATM    7  S     D T 153      -4.857  -4.781   9.580  0.85 32.23    -0.084 SA
HETATM    8  C7    D T 153      -3.717  -5.540  10.655  0.85 32.23     0.045 C 
HETATM    9  C8    D T 153      -3.908  -6.897  10.957  0.85 32.23     0.008 C 
HETATM   10  C9    D T 153      -3.109  -7.524  11.893  0.85 32.23     0.001 C 
HETATM   11  C10   D T 153      -2.149  -6.783  12.567  0.85 32.23     0.002 C 
HETATM   12  C11   D T 153      -1.906  -5.471  12.188  0.85 32.23     0.018 C 
HETATM   13  C12   D T 153      -2.648  -4.801  11.187  0.85 32.23     0.066 C 
HETATM   14  N1    D T 153      -2.495  -3.354  10.868  0.85 82.40    -0.327 N 
ENDROOT
BRANCH  14  15
HETATM   15  C13   D T 153      -1.307  -2.634  11.333  0.85 82.40     0.108 C 
BRANCH  15  16
HETATM   16  C14   D T 153      -0.261  -2.469  10.221  0.85 82.40     0.060 C 
BRANCH  16  17
HETATM   17  C15   D T 153      -0.020  -0.996   9.839  0.85 82.40     0.252 C 
BRANCH  17  18
HETATM   18  N2    D T 153      -0.067  -0.047  10.926  0.85 82.40     0.141 N 
HETATM   19  C16   D T 153       1.287   0.138  11.364  0.85 82.40     0.285 C 
HETATM   20  C17   D T 153       1.344   1.173  12.380  0.85 82.40     0.285 C 
HETATM   21  N3    D T 153       0.035   1.719  12.604  0.85 82.40     0.143 N 
HETATM   22  C18   D T 153      -0.468   2.243  11.368  0.85 82.40     0.285 C 
HETATM   23  C20   D T 153       0.199   2.831  13.479  0.85 82.40     0.285 C 
HETATM   24  C19   D T 153      -0.562   1.186  10.380  0.85 82.40     0.285 C 
ENDBRANCH  17  18
ENDBRANCH  16  17
ENDBRANCH  15  16
ENDBRANCH  14  15
BRANCH   1  25
HETATM   25  C21   D T 153      -4.855   0.988  11.137  0.85 32.23     0.419 C 
HETATM   26  F1    D T 153      -3.695   1.486  11.443  0.85 32.23    -0.166 F 
HETATM   27  F2    D T 153      -5.596   1.328  12.130  0.85 32.23    -0.166 F 
HETATM   28  F3    D T 153      -5.279   1.749  10.167  0.85 32.23    -0.166 F 
ENDBRANCH   1  25
TORSDOF 10
ENDMDL
MODEL 2
REMARK VINA RESULT:    -8.749      3.220      5.132
REMARK INTER + INTRA:         -12.415
REMARK INTER:                 -12.176
REMARK INTRA:                  -0.239
REMARK UNBOUND:                -1.109
REMARK  10 active torsions:
REMARK  status: ('A' for Active; 'I' for Inactive)
REMARK    1  A    between atoms: C1_1  and  C21_25 
REMARK    2  A    between atoms: N1_14  and  C13_15 
REMARK    3  A    between atoms: C13_15  and  C14_16 
REMARK    4  A    between atoms: C14_16  and  C15_17 
REMARK    5  A    between atoms: C15_17  and  N2_18 
REMARK    6  A    between atoms: C1_29  and  C21_53 
REMARK    7  A    between atoms: N1_42  and  C13_43 
REMARK    8  A    between atoms: C13_43  and  C14_44 
REMARK    9  A    between atoms: C14_44  and  C15_45 
REMARK   10  A    between atoms: C15_45  and  N2_46 
ROOT
HETATM    1  C1    D T 153      -3.927  -5.140  10.414  0.85 32.23     0.073 C 
HETATM    2  C2    D T 153      -5.188  -5.247   9.827  0.85 32.23     0.004 C 
HETATM    3  C3    D T 153      -5.995  -4.136   9.786  0.85 32.23     0.008 C 
HETATM    4  C4    D T 153      -5.440  -2.878   9.938  0.85 32.23     0.045 C 
HETATM    5  C5    D T 153      -4.115  -2.729  10.372  0.85 32.23     0.066 C 
HETATM    6  C6    D T 153      -3.357  -3.886  10.651  0.85 32.23     0.022 C 
HETATM    7  S     D T 153      -6.444  -1.483   9.547  0.85 32.23    -0.084 SA
HETATM    8  C7    D T 153      -5.276  -0.228   9.247  0.85 32.23     0.045 C 
HETATM    9  C8    D T 153      -5.647   0.818   8.387  0.85 32.23     0.008 C 
HETATM   10  C9    D T 153      -4.725   1.779   8.017  0.85 32.23     0.001 C 
HETATM   11  C10   D T 153      -3.417   1.669   8.465  0.85 32.23     0.002 C 
HETATM   12  C11   D T 153      -3.090   0.688   9.390  0.85 32.23     0.018 C 
HETATM   13  C12   D T 153      -4.012  -0.279   9.857  0.85 32.23     0.066 C 
HETATM   14  N1    D T 153      -3.642  -1.421  10.739  0.85 82.40    -0.327 N 
ENDROOT
BRANCH  14  15
HETATM   15  C13   D T 153      -2.369  -1.392  11.461  0.85 82.40     0.108 C 
BRANCH  15  16
HETATM   16  C14   D T 153      -1.197  -1.854  10.583  0.85 82.40     0.060 C 
BRANCH  16  17
HETATM   17  C15   D T 153       0.122  -1.132  10.918  0.85 82.40     0.252 C 
BRANCH  17  18
HETATM   18  N2    D T 153      -0.004   0.109  11.643  0.85 82.40     0.141 N 
HETATM   19  C16   D T 153       0.730  -0.056  12.865  0.85 82.40     0.285 C 
HETATM   20  C17   D T 153       0.755   1.193  13.604  0.85 82.40     0.285 C 
HETATM   21  N3    D T 153       0.073   2.219  12.865  0.85 82.40     0.143 N 
HETATM   22  C18   D T 153       0.703   2.368  11.586  0.85 82.40     0.285 C 
HETATM   23  C20   D T 153       0.287   3.439  13.566  0.85 82.40     0.285 C 
HETATM   24  C19   D T 153       0.628   1.123  10.845  0.85 82.40     0.285 C 
ENDBRANCH  17  18
ENDBRANCH  16  17
ENDBRANCH  15  16
ENDBRANCH  14  15
BRANCH   1  25
HETATM   25  C21   D T 153      -3.210  -6.350  10.789  0.85 32.23     0.419 C 
HETATM   26  F1    D T 153      -3.791  -7.062  11.709  0.85 32.23    -0.166 F 
HETATM   27  F2    D T 153      -2.038  -6.140  11.273  0.85 32.23    -0.166 F 
HETATM   28  F3    D T 153      -2.992  -7.199   9.824  0.85 32.23    -0.166 F 
ENDBRANCH   1  25
TORSDOF 10
ENDMDL
MODEL 3
REMARK VINA RESULT:    -8.721      3.530      5.880
REMARK INTER + INTRA:         -12.378
REMARK INTER:                 -12.003
REMARK INTRA:                  -0.375
REMARK UNBOUND:                -1.109
REMARK  10 active torsions:
REMARK  status: ('A' for Active; 'I' for Inactive)
REMARK    1  A    between atoms: C1_1  and  C21_25 
REMARK    2  A    between atoms: N1_14  and  C13_15 
REMARK    3  A    between atoms: C13_15  and  C14_16 
REMARK    4  A    between atoms: C14_16  and  C15_17 
REMARK    5  A    between atoms: C15_17  and  N2_18 
REMARK    6  A    between atoms: C1_29  and  C21_53 
REMARK    7  A    between atoms: N1_42  and  C13_43 
REMARK    8  A    between atoms: C13_43  and  C14_44 
REMARK    9  A    between atoms: C14_44  and  C15_45 
REMARK   10  A    between atoms: C15_45  and  N2_46 
ROOT
HETATM    1  C1    D T 153      -3.676  -5.076  10.469  0.85 32.23     0.073 C 
HETATM    2  C2    D T 153      -4.914  -5.274   9.855  0.85 32.23     0.004 C 
HETATM    3  C3    D T 153      -5.792  -4.219   9.784  0.85 32.23     0.008 C 
HETATM    4  C4    D T 153      -5.326  -2.925   9.935  0.85 32.23     0.045 C 
HETATM    5  C5    D T 153      -4.024  -2.684  10.397  0.85 32.23     0.066 C 
HETATM    6  C6    D T 153      -3.197  -3.785  10.705  0.85 32.23     0.022 C 
HETATM    7  S     D T 153      -6.412  -1.604   9.508  0.85 32.23    -0.084 SA
HETATM    8  C7    D T 153      -5.324  -0.276   9.221  0.85 32.23     0.045 C 
HETATM    9  C8    D T 153      -5.744   0.735   8.342  0.85 32.23     0.008 C 
HETATM   10  C9    D T 153      -4.881   1.752   7.983  0.85 32.23     0.001 C 
HETATM   11  C10   D T 153      -3.578   1.733   8.460  0.85 32.23     0.002 C 
HETATM   12  C11   D T 153      -3.207   0.785   9.403  0.85 32.23     0.018 C 
HETATM   13  C12   D T 153      -4.073  -0.237   9.859  0.85 32.23     0.066 C 
HETATM   14  N1    D T 153      -3.648  -1.344  10.761  0.85 82.40    -0.327 N 
ENDROOT
BRANCH  14  15
HETATM   15  C13   D T 153      -2.396  -1.223  11.511  0.85 82.40     0.108 C 
BRANCH  15  16
HETATM   16  C14   D T 153      -1.167  -1.267  10.592  0.85 82.40     0.060 C 
BRANCH  16  17
HETATM   17  C15   D T 153       0.162  -1.282  11.371  0.85 82.40     0.252 C 
BRANCH  17  18
HETATM   18  N2    D T 153       1.160  -2.212  10.897  0.85 82.40     0.141 N 
HETATM   19  C16   D T 153       0.472  -3.157  10.064  0.85 82.40     0.285 C 
HETATM   20  C17   D T 153       1.425  -4.062   9.447  0.85 82.40     0.285 C 
HETATM   21  N3    D T 153       2.764  -3.706   9.829  0.85 82.40     0.143 N 
HETATM   22  C18   D T 153       3.015  -2.351   9.434  0.85 82.40     0.285 C 
HETATM   23  C20   D T 153       3.639  -4.523   9.057  0.85 82.40     0.285 C 
HETATM   24  C19   D T 153       2.083  -1.458  10.096  0.85 82.40     0.285 C 
ENDBRANCH  17  18
ENDBRANCH  16  17
ENDBRANCH  15  16
ENDBRANCH  14  15
BRANCH   1  25
HETATM   25  C21   D T 153      -2.889  -6.233  10.872  0.85 32.23     0.419 C 
HETATM   26  F1    D T 153      -2.657  -6.313  12.148  0.85 32.23    -0.166 F 
HETATM   27  F2    D T 153      -1.713  -6.277  10.353  0.85 32.23    -0.166 F 
HETATM   28  F3    D T 153      -3.397  -7.395  10.570  0.85 32.23    -0.166 F 
ENDBRANCH   1  25
TORSDOF 10
ENDMDL
MODEL 4
REMARK VINA RESULT:    -8.686      2.893      6.512
REMARK INTER + INTRA:         -12.333
REMARK INTER:                 -11.849
REMARK INTRA:                  -0.484
REMARK UNBOUND:                -1.109
REMARK  10 active torsions:
REMARK  status: ('A' for Active; 'I' for Inactive)
REMARK    1  A    between atoms: C1_1  and  C21_25 
REMARK    2  A    between atoms: N1_14  and  C13_15 
REMARK    3  A    between atoms: C13_15  and  C14_16 
REMARK    4  A    between atoms: C14_16  and  C15_17 
REMARK    5  A    between atoms: C15_17  and  N2_18 
REMARK    6  A    between atoms: C1_29  and  C21_53 
REMARK    7  A    between atoms: N1_42  and  C13_43 
REMARK    8  A    between atoms: C13_43  and  C14_44 
REMARK    9  A    between atoms: C14_44  and  C15_45 
REMARK   10  A    between atoms: C15_45  and  N2_46 
ROOT
HETATM    1  C1    D T 153      -5.392  -2.835   9.794  0.85 32.23     0.073 C 
HETATM    2  C2    D T 153      -6.152  -1.705   9.491  0.85 32.23     0.004 C 
HETATM    3  C3    D T 153      -5.774  -0.494  10.019  0.85 32.23     0.008 C 
HETATM    4  C4    D T 153      -4.482  -0.319  10.482  0.85 32.23     0.045 C 
HETATM    5  C5    D T 153      -3.627  -1.418  10.646  0.85 32.23     0.066 C 
HETATM    6  C6    D T 153      -4.108  -2.706  10.330  0.85 32.23     0.022 C 
HETATM    7  S     D T 153      -3.950   1.325  10.834  0.85 32.23    -0.084 SA
HETATM    8  C7    D T 153      -2.215   1.203  10.753  0.85 32.23     0.045 C 
HETATM    9  C8    D T 153      -1.494   2.359  10.418  0.85 32.23     0.008 C 
HETATM   10  C9    D T 153      -0.128   2.299  10.223  0.85 32.23     0.001 C 
HETATM   11  C10   D T 153       0.514   1.072  10.312  0.85 32.23     0.002 C 
HETATM   12  C11   D T 153      -0.194  -0.042  10.738  0.85 32.23     0.018 C 
HETATM   13  C12   D T 153      -1.581  -0.021  11.020  0.85 32.23     0.066 C 
HETATM   14  N1    D T 153      -2.381  -1.236  11.341  0.85 82.40    -0.327 N 
ENDROOT
BRANCH  14  15
HETATM   15  C13   D T 153      -1.695  -2.468  11.736  0.85 82.40     0.108 C 
BRANCH  15  16
HETATM   16  C14   D T 153      -0.904  -3.086  10.575  0.85 82.40     0.060 C 
BRANCH  16  17
HETATM   17  C15   D T 153      -0.420  -4.517  10.875  0.85 82.40     0.252 C 
BRANCH  17  18
HETATM   18  N2    D T 153      -1.411  -5.419  11.413  0.85 82.40     0.141 N 
HETATM   19  C16   D T 153      -2.196  -5.871  10.300  0.85 82.40     0.285 C 
HETATM   20  C17   D T 153      -3.145  -6.879  10.738  0.85 82.40     0.285 C 
HETATM   21  N3    D T 153      -2.977  -7.141  12.140  0.85 82.40     0.143 N 
HETATM   22  C18   D T 153      -1.629  -7.571  12.374  0.85 82.40     0.285 C 
HETATM   23  C20   D T 153      -3.815  -8.249  12.452  0.85 82.40     0.285 C 
HETATM   24  C19   D T 153      -0.698  -6.533  11.974  0.85 82.40     0.285 C 
ENDBRANCH  17  18
ENDBRANCH  16  17
ENDBRANCH  15  16
ENDBRANCH  14  15
BRANCH   1  25
HETATM   25  C21   D T 153      -5.954  -4.157   9.555  0.85 32.23     0.419 C 
HETATM   26  F1    D T 153      -5.267  -4.899   8.739  0.85 32.23    -0.166 F 
HETATM   27  F2    D T 153      -7.127  -4.143   9.028  0.85 32.23    -0.166 F 
HETATM   28  F3    D T 153      -6.105  -4.906  10.611  0.85 32.23    -0.166 F 
ENDBRANCH   1  25
TORSDOF 10
ENDMDL
MODEL 5
REMARK VINA RESULT:    -8.473      3.304      5.311
REMARK INTER + INTRA:         -12.058
REMARK INTER:                 -11.912
REMARK INTRA:                  -0.146
REMARK UNBOUND:                -1.109
REMARK  10 active torsions:
REMARK  status: ('A' for Active; 'I' for Inactive)
REMARK    1  A    between atoms: C1_1  and  C21_25 
REMARK    2  A    between atoms: N1_14  and  C13_15 
REMARK    3  A    between atoms: C13_15  and  C14_16 
REMARK    4  A    between atoms: C14_16  and  C15_17 
REMARK    5  A    between atoms: C15_17  and  N2_18 
REMARK    6  A    between atoms: C1_29  and  C21_53 
REMARK    7  A    between atoms: N1_42  and  C13_43 
REMARK    8  A    between atoms: C13_43  and  C14_44 
REMARK    9  A    between atoms: C14_44  and  C15_45 
REMARK   10  A    between atoms: C15_45  and  N2_46 
ROOT
HETATM    1  C1    D T 153      -3.721  -5.001  10.569  0.85 32.23     0.073 C 
HETATM    2  C2    D T 153      -4.944  -5.215   9.932  0.85 32.23     0.004 C 
HETATM    3  C3    D T 153      -5.821  -4.164   9.817  0.85 32.23     0.008 C 
HETATM    4  C4    D T 153      -5.360  -2.866   9.948  0.85 32.23     0.045 C 
HETATM    5  C5    D T 153      -4.069  -2.612  10.433  0.85 32.23     0.066 C 
HETATM    6  C6    D T 153      -3.249  -3.704  10.786  0.85 32.23     0.022 C 
HETATM    7  S     D T 153      -6.438  -1.557   9.464  0.85 32.23    -0.084 SA
HETATM    8  C7    D T 153      -5.344  -0.235   9.170  0.85 32.23     0.045 C 
HETATM    9  C8    D T 153      -5.745   0.755   8.259  0.85 32.23     0.008 C 
HETATM   10  C9    D T 153      -4.875   1.764   7.896  0.85 32.23     0.001 C 
HETATM   11  C10   D T 153      -3.584   1.759   8.403  0.85 32.23     0.002 C 
HETATM   12  C11   D T 153      -3.234   0.834   9.375  0.85 32.23     0.018 C 
HETATM   13  C12   D T 153      -4.109  -0.179   9.836  0.85 32.23     0.066 C 
HETATM   14  N1    D T 153      -3.703  -1.263  10.773  0.85 82.40    -0.327 N 
ENDROOT
BRANCH  14  15
HETATM   15  C13   D T 153      -2.469  -1.123  11.548  0.85 82.40     0.108 C 
BRANCH  15  16
HETATM   16  C14   D T 153      -1.234  -0.986  10.647  0.85 82.40     0.060 C 
BRANCH  16  17
HETATM   17  C15   D T 153       0.041  -0.619  11.429  0.85 82.40     0.252 C 
BRANCH  17  18
HETATM   18  N2    D T 153       0.818   0.474  10.894  0.85 82.40     0.141 N 
HETATM   19  C16   D T 153       0.013   1.653  11.037  0.85 82.40     0.285 C 
HETATM   20  C17   D T 153       0.770   2.824  10.630  0.85 82.40     0.285 C 
HETATM   21  N3    D T 153       2.102   2.444  10.249  0.85 82.40     0.143 N 
HETATM   22  C18   D T 153       2.732   1.787  11.356  0.85 82.40     0.285 C 
HETATM   23  C20   D T 153       2.824   3.652  10.031  0.85 82.40     0.285 C 
HETATM   24  C19   D T 153       1.988   0.595  11.718  0.85 82.40     0.285 C 
ENDBRANCH  17  18
ENDBRANCH  16  17
ENDBRANCH  15  16
ENDBRANCH  14  15
BRANCH   1  25
HETATM   25  C21   D T 153      -2.942  -6.147  11.018  0.85 32.23     0.419 C 
HETATM   26  F1    D T 153      -2.109  -5.892  11.982  0.85 32.23    -0.166 F 
HETATM   27  F2    D T 153      -2.194  -6.664  10.109  0.85 32.23    -0.166 F 
HETATM   28  F3    D T 153      -3.632  -7.162  11.456  0.85 32.23    -0.166 F 
ENDBRANCH   1  25
TORSDOF 10
ENDMDL
MODEL 6
REMARK VINA RESULT:    -8.284      3.361      5.466
REMARK INTER + INTRA:         -11.814
REMARK INTER:                 -10.961
REMARK INTRA:                  -0.853
REMARK UNBOUND:                -1.109
REMARK  10 active torsions:
REMARK  status: ('A' for Active; 'I' for Inactive)
REMARK    1  A    between atoms: C1_1  and  C21_25 
REMARK    2  A    between atoms: N1_14  and  C13_15 
REMARK    3  A    between atoms: C13_15  and  C14_16 
REMARK    4  A    between atoms: C14_16  and  C15_17 
REMARK    5  A    between atoms: C15_17  and  N2_18 
REMARK    6  A    between atoms: C1_29  and  C21_53 
REMARK    7  A    between atoms: N1_42  and  C13_43 
REMARK    8  A    between atoms: C13_43  and  C14_44 
REMARK    9  A    between atoms: C14_44  and  C15_45 
REMARK   10  A    between atoms: C15_45  and  N2_46 
ROOT
HETATM    1  C1    D T 153      -5.507  -2.507   9.548  0.85 32.23     0.073 C 
HETATM    2  C2    D T 153      -6.296  -1.358   9.585  0.85 32.23     0.004 C 
HETATM    3  C3    D T 153      -5.833  -0.260  10.269  0.85 32.23     0.008 C 
HETATM    4  C4    D T 153      -4.483  -0.148  10.555  0.85 32.23     0.045 C 
HETATM    5  C5    D T 153      -3.621  -1.239  10.375  0.85 32.23     0.066 C 
HETATM    6  C6    D T 153      -4.155  -2.454   9.897  0.85 32.23     0.022 C 
HETATM    7  S     D T 153      -3.890   1.411  11.127  0.85 32.23    -0.084 SA
HETATM    8  C7    D T 153      -2.190   1.344  10.761  0.85 32.23     0.045 C 
HETATM    9  C8    D T 153      -1.519   2.558  10.546  0.85 32.23     0.008 C 
HETATM   10  C9    D T 153      -0.200   2.565  10.137  0.85 32.23     0.001 C 
HETATM   11  C10   D T 153       0.439   1.358   9.892  0.85 32.23     0.002 C 
HETATM   12  C11   D T 153      -0.204   0.168  10.202  0.85 32.23     0.018 C 
HETATM   13  C12   D T 153      -1.531   0.106  10.691  0.85 32.23     0.066 C 
HETATM   14  N1    D T 153      -2.282  -1.164  10.893  0.85 82.40    -0.327 N 
ENDROOT
BRANCH  14  15
HETATM   15  C13   D T 153      -1.553  -2.434  10.938  0.85 82.40     0.108 C 
BRANCH  15  16
HETATM   16  C14   D T 153      -0.865  -2.657  12.292  0.85 82.40     0.060 C 
BRANCH  16  17
HETATM   17  C15   D T 153       0.499  -3.362  12.162  0.85 82.40     0.252 C 
BRANCH  17  18
HETATM   18  N2    D T 153       1.492  -2.673  11.372  0.85 82.40     0.141 N 
HETATM   19  C16   D T 153       2.594  -2.402  12.250  0.85 82.40     0.285 C 
HETATM   20  C17   D T 153       3.692  -1.814  11.504  0.85 82.40     0.285 C 
HETATM   21  N3    D T 153       3.351  -1.723  10.112  0.85 82.40     0.143 N 
HETATM   22  C18   D T 153       3.044  -3.035   9.622  0.85 82.40     0.285 C 
HETATM   23  C20   D T 153       4.528  -1.301   9.430  0.85 82.40     0.285 C 
HETATM   24  C19   D T 153       1.916  -3.586  10.348  0.85 82.40     0.285 C 
ENDBRANCH  17  18
ENDBRANCH  16  17
ENDBRANCH  15  16
ENDBRANCH  14  15
BRANCH   1  25
HETATM   25  C21   D T 153      -6.110  -3.772   9.151  0.85 32.23     0.419 C 
HETATM   26  F1    D T 153      -5.323  -4.802   9.247  0.85 32.23    -0.166 F 
HETATM   27  F2    D T 153      -6.499  -3.809   7.926  0.85 32.23    -0.166 F 
HETATM   28  F3    D T 153      -7.173  -4.125   9.818  0.85 32.23    -0.166 F 
ENDBRANCH   1  25
TORSDOF 10
ENDMDL
MODEL 7
REMARK VINA RESULT:    -8.284      2.292      3.488
REMARK INTER + INTRA:         -11.814
REMARK INTER:                 -11.166
REMARK INTRA:                  -0.648
REMARK UNBOUND:                -1.109
REMARK  10 active torsions:
REMARK  status: ('A' for Active; 'I' for Inactive)
REMARK    1  A    between atoms: C1_1  and  C21_25 
REMARK    2  A    between atoms: N1_14  and  C13_15 
REMARK    3  A    between atoms: C13_15  and  C14_16 
REMARK    4  A    between atoms: C14_16  and  C15_17 
REMARK    5  A    between atoms: C15_17  and  N2_18 
REMARK    6  A    between atoms: C1_29  and  C21_53 
REMARK    7  A    between atoms: N1_42  and  C13_43 
REMARK    8  A    between atoms: C13_43  and  C14_44 
REMARK    9  A    between atoms: C14_44  and  C15_45 
REMARK   10  A    between atoms: C15_45  and  N2_46 
ROOT
HETATM    1  C1    D T 153      -4.841  -0.532  10.879  0.85 32.23     0.073 C 
HETATM    2  C2    D T 153      -5.964  -1.130  10.306  0.85 32.23     0.004 C 
HETATM    3  C3    D T 153      -5.828  -2.369   9.727  0.85 32.23     0.008 C 
HETATM    4  C4    D T 153      -4.746  -3.166  10.055  0.85 32.23     0.045 C 
HETATM    5  C5    D T 153      -3.664  -2.642  10.776  0.85 32.23     0.066 C 
HETATM    6  C6    D T 153      -3.699  -1.285  11.162  0.85 32.23     0.022 C 
HETATM    7  S     D T 153      -4.789  -4.857   9.555  0.85 32.23    -0.084 SA
HETATM    8  C7    D T 153      -3.661  -5.617  10.642  0.85 32.23     0.045 C 
HETATM    9  C8    D T 153      -3.846  -6.979  10.927  0.85 32.23     0.008 C 
HETATM   10  C9    D T 153      -3.058  -7.609  11.871  0.85 32.23     0.001 C 
HETATM   11  C10   D T 153      -2.117  -6.867  12.570  0.85 32.23     0.002 C 
HETATM   12  C11   D T 153      -1.879  -5.549  12.209  0.85 32.23     0.018 C 
HETATM   13  C12   D T 153      -2.609  -4.874  11.201  0.85 32.23     0.066 C 
HETATM   14  N1    D T 153      -2.463  -3.423  10.901  0.85 82.40    -0.327 N 
ENDROOT
BRANCH  14  15
HETATM   15  C13   D T 153      -1.290  -2.698  11.395  0.85 82.40     0.108 C 
BRANCH  15  16
HETATM   16  C14   D T 153      -0.440  -2.128  10.251  0.85 82.40     0.060 C 
BRANCH  16  17
HETATM   17  C15   D T 153       1.051  -2.005  10.616  0.85 82.40     0.252 C 
BRANCH  17  18
HETATM   18  N2    D T 153       1.913  -3.045  10.104  0.85 82.40     0.141 N 
HETATM   19  C16   D T 153       3.202  -2.447   9.912  0.85 82.40     0.285 C 
HETATM   20  C17   D T 153       4.165  -3.457   9.510  0.85 82.40     0.285 C 
HETATM   21  N3    D T 153       3.538  -4.749   9.470  0.85 82.40     0.143 N 
HETATM   22  C18   D T 153       2.996  -5.044  10.764  0.85 82.40     0.285 C 
HETATM   23  C20   D T 153       4.573  -5.699   9.238  0.85 82.40     0.285 C 
HETATM   24  C19   D T 153       2.004  -4.049  11.127  0.85 82.40     0.285 C 
ENDBRANCH  17  18
ENDBRANCH  16  17
ENDBRANCH  15  16
ENDBRANCH  14  15
BRANCH   1  25
HETATM   25  C21   D T 153      -4.866   0.894  11.172  0.85 32.23     0.419 C 
HETATM   26  F1    D T 153      -3.716   1.401  11.501  0.85 32.23    -0.166 F 
HETATM   27  F2    D T 153      -5.626   1.217  12.158  0.85 32.23    -0.166 F 
HETATM   28  F3    D T 153      -5.284   1.662  10.204  0.85 32.23    -0.166 F 
ENDBRANCH   1  25
TORSDOF 10
ENDMDL
MODEL 8
REMARK VINA RESULT:    -8.210      2.460      6.463
REMARK INTER + INTRA:         -11.719
REMARK INTER:                 -11.082
REMARK INTRA:                  -0.637
REMARK UNBOUND:                -1.109
REMARK  10 active torsions:
REMARK  status: ('A' for Active; 'I' for Inactive)
REMARK    1  A    between atoms: C1_1  and  C21_25 
REMARK    2  A    between atoms: N1_14  and  C13_15 
REMARK    3  A    between atoms: C13_15  and  C14_16 
REMARK    4  A    between atoms: C14_16  and  C15_17 
REMARK    5  A    between atoms: C15_17  and  N2_18 
REMARK    6  A    between atoms: C1_29  and  C21_53 
REMARK    7  A    between atoms: N1_42  and  C13_43 
REMARK    8  A    between atoms: C13_43  and  C14_44 
REMARK    9  A    between atoms: C14_44  and  C15_45 
REMARK   10  A    between atoms: C15_45  and  N2_46 
ROOT
HETATM    1  C1    D T 153      -4.621   0.163   9.731  0.85 32.23     0.073 C 
HETATM    2  C2    D T 153      -4.586   1.530  10.008  0.85 32.23     0.004 C 
HETATM    3  C3    D T 153      -3.592   2.013  10.824  0.85 32.23     0.008 C 
HETATM    4  C4    D T 153      -2.445   1.266  11.027  0.85 32.23     0.045 C 
HETATM    5  C5    D T 153      -2.381  -0.072  10.613  0.85 32.23     0.066 C 
HETATM    6  C6    D T 153      -3.509  -0.644   9.986  0.85 32.23     0.022 C 
HETATM    7  S     D T 153      -1.072   2.059  11.797  0.85 32.23    -0.084 SA
HETATM    8  C7    D T 153       0.278   1.076  11.304  0.85 32.23     0.045 C 
HETATM    9  C8    D T 153       1.541   1.686  11.240  0.85 32.23     0.008 C 
HETATM   10  C9    D T 153       2.627   0.991  10.744  0.85 32.23     0.001 C 
HETATM   11  C10   D T 153       2.444  -0.297  10.263  0.85 32.23     0.002 C 
HETATM   12  C11   D T 153       1.215  -0.920  10.424  0.85 32.23     0.018 C 
HETATM   13  C12   D T 153       0.087  -0.279  10.990  0.85 32.23     0.066 C 
HETATM   14  N1    D T 153      -1.273  -0.884  11.040  0.85 82.40    -0.327 N 
ENDROOT
BRANCH  14  15
HETATM   15  C13   D T 153      -1.431  -2.324  10.828  0.85 82.40     0.108 C 
BRANCH  15  16
HETATM   16  C14   D T 153      -1.945  -3.039  12.085  0.85 82.40     0.060 C 
BRANCH  16  17
HETATM   17  C15   D T 153      -3.049  -4.069  11.780  0.85 82.40     0.252 C 
BRANCH  17  18
HETATM   18  N2    D T 153      -2.616  -5.441  11.661  0.85 82.40     0.141 N 
HETATM   19  C16   D T 153      -2.846  -5.825  10.298  0.85 82.40     0.285 C 
HETATM   20  C17   D T 153      -2.325  -7.159  10.061  0.85 82.40     0.285 C 
HETATM   21  N3    D T 153      -1.704  -7.666  11.253  0.85 82.40     0.143 N 
HETATM   22  C18   D T 153      -0.657  -6.771  11.649  0.85 82.40     0.285 C 
HETATM   23  C20   D T 153      -1.075  -8.893  10.896  0.85 82.40     0.285 C 
HETATM   24  C19   D T 153      -1.204  -5.456  11.925  0.85 82.40     0.285 C 
ENDBRANCH  17  18
ENDBRANCH  16  17
ENDBRANCH  15  16
ENDBRANCH  14  15
BRANCH   1  25
HETATM   25  C21   D T 153      -5.836  -0.421   9.180  0.85 32.23     0.419 C 
HETATM   26  F1    D T 153      -6.662  -0.890  10.066  0.85 32.23    -0.166 F 
HETATM   27  F2    D T 153      -5.633  -1.425   8.403  0.85 32.23    -0.166 F 
HETATM   28  F3    D T 153      -6.569   0.378   8.456  0.85 32.23    -0.166 F 
ENDBRANCH   1  25
TORSDOF 10
ENDMDL
MODEL 9
REMARK VINA RESULT:    -8.189      3.383      5.699
REMARK INTER + INTRA:         -11.692
REMARK INTER:                 -10.412
REMARK INTRA:                  -1.279
REMARK UNBOUND:                -1.109
REMARK  10 active torsions:
REMARK  status: ('A' for Active; 'I' for Inactive)
REMARK    1  A    between atoms: C1_1  and  C21_25 
REMARK    2  A    between atoms: N1_14  and  C13_15 
REMARK    3  A    between atoms: C13_15  and  C14_16 
REMARK    4  A    between atoms: C14_16  and  C15_17 
REMARK    5  A    between atoms: C15_17  and  N2_18 
REMARK    6  A    between atoms: C1_29  and  C21_53 
REMARK    7  A    between atoms: N1_42  and  C13_43 
REMARK    8  A    between atoms: C13_43  and  C14_44 
REMARK    9  A    between atoms: C14_44  and  C15_45 
REMARK   10  A    between atoms: C15_45  and  N2_46 
ROOT
HETATM    1  C1    D T 153      -0.065  -2.893  10.660  0.85 32.23     0.073 C 
HETATM    2  C2    D T 153      -1.041  -3.857  10.913  0.85 32.23     0.004 C 
HETATM    3  C3    D T 153      -2.318  -3.444  11.207  0.85 32.23     0.008 C 
HETATM    4  C4    D T 153      -2.722  -2.165  10.864  0.85 32.23     0.045 C 
HETATM    5  C5    D T 153      -1.787  -1.208  10.445  0.85 32.23     0.066 C 
HETATM    6  C6    D T 153      -0.426  -1.572  10.379  0.85 32.23     0.022 C 
HETATM    7  S     D T 153      -4.444  -1.796  10.952  0.85 32.23    -0.084 SA
HETATM    8  C7    D T 153      -4.607  -0.423   9.893  0.85 32.23     0.045 C 
HETATM    9  C8    D T 153      -5.852  -0.215   9.280  0.85 32.23     0.008 C 
HETATM   10  C9    D T 153      -6.010   0.785   8.341  0.85 32.23     0.001 C 
HETATM   11  C10   D T 153      -4.910   1.547   7.973  0.85 32.23     0.002 C 
HETATM   12  C11   D T 153      -3.713   1.396   8.656  0.85 32.23     0.018 C 
HETATM   13  C12   D T 153      -3.516   0.434   9.676  0.85 32.23     0.066 C 
HETATM   14  N1    D T 153      -2.200   0.164  10.319  0.85 82.40    -0.327 N 
ENDROOT
BRANCH  14  15
HETATM   15  C13   D T 153      -1.114   1.137  10.178  0.85 82.40     0.108 C 
BRANCH  15  16
HETATM   16  C14   D T 153      -1.199   2.252  11.229  0.85 82.40     0.060 C 
BRANCH  16  17
HETATM   17  C15   D T 153       0.124   2.461  11.989  0.85 82.40     0.252 C 
BRANCH  17  18
HETATM   18  N2    D T 153       1.205   1.574  11.630  0.85 82.40     0.141 N 
HETATM   19  C16   D T 153       2.368   2.397  11.462  0.85 82.40     0.285 C 
HETATM   20  C17   D T 153       3.534   1.567  11.215  0.85 82.40     0.285 C 
HETATM   21  N3    D T 153       3.169   0.178  11.256  0.85 82.40     0.143 N 
HETATM   22  C18   D T 153       2.595  -0.114  12.536  0.85 82.40     0.285 C 
HETATM   23  C20   D T 153       4.382  -0.564  11.176  0.85 82.40     0.285 C 
HETATM   24  C19   D T 153       1.406   0.691  12.744  0.85 82.40     0.285 C 
ENDBRANCH  17  18
ENDBRANCH  16  17
ENDBRANCH  15  16
ENDBRANCH  14  15
BRANCH   1  25
HETATM   25  C21   D T 153       1.340  -3.274  10.701  0.85 32.23     0.419 C 
HETATM   26  F1    D T 153       2.114  -2.575   9.926  0.85 32.23    -0.166 F 
HETATM   27  F2    D T 153       1.568  -4.485  10.336  0.85 32.23    -0.166 F 
HETATM   28  F3    D T 153       1.912  -3.197  11.870  0.85 32.23    -0.166 F 
ENDBRANCH   1  25
TORSDOF 10
ENDMDL
