MODEL 1
REMARK VINA RESULT:   -11.064      0.000      0.000
REMARK INTER + INTRA:         -12.664
REMARK INTER:                 -13.651
REMARK INTRA:                   0.987
REMARK UNBOUND:                 0.987
REMARK  5 active torsions:
REMARK  status: ('A' for Active; 'I' for Inactive)
REMARK       I    between atoms: NBM_14  and  CAY_34 
REMARK    1  A    between atoms: NBM_14  and  CBL_43 
REMARK    2  A    between atoms: NBN_24  and  CBK_31 
REMARK    3  A    between atoms: CBQ_25  and  NBO_42 
REMARK    4  A    between atoms: CBP_26  and  OAV_27 
REMARK    5  A    between atoms: CAY_34  and  CAZ_36 
ROOT
HETATM    1  CBQ   D T 501      -0.402   0.716   9.255  1.00 56.13     0.192 C 
HETATM    2  CBP   D T 501       0.835   1.070  10.140  1.00 58.89     0.181 C 
HETATM    3  CAC   D T 501       0.121   0.289   7.880  1.00 54.70     0.057 C 
HETATM    4  OAW   D T 501      -1.184   1.898   9.003  1.00 56.41    -0.319 OA
HETATM    5  CBK   D T 501      -1.289   2.911  10.032  1.00 58.59     0.208 C 
HETATM    6  CAT   D T 501       0.063   3.307  10.657  1.00 60.77     0.079 C 
HETATM    7  CBL   D T 501       1.145   2.539   9.921  1.00 62.40     0.120 C 
ENDROOT
BRANCH   7   8
HETATM    8  NBM   D T 501       2.483   2.982  10.374  1.00 69.47    -0.314 N 
HETATM    9  CAB   D T 501       2.626   3.735  11.640  1.00 69.73     0.129 C 
HETATM   10  CAY   D T 501       3.574   2.763   9.579  1.00 78.65     0.257 C 
HETATM   11  OAE   D T 501       3.505   2.172   8.501  1.00 84.78    -0.267 OA
BRANCH  10  12
HETATM   12  CAZ   D T 501       4.823   3.254   9.971  1.00 83.94     0.056 A 
HETATM   13  CAM   D T 501       5.706   2.455  10.697  1.00 85.65     0.005 A 
HETATM   14  CAG   D T 501       6.959   2.955  11.062  1.00 86.83     0.000 A 
HETATM   15  CAF   D T 501       7.337   4.249  10.691  1.00 87.55     0.000 A 
HETATM   16  CAH   D T 501       6.462   5.048   9.955  1.00 86.87     0.000 A 
HETATM   17  CAN   D T 501       5.212   4.545   9.587  1.00 86.77     0.005 A 
ENDBRANCH  10  12
ENDBRANCH   7   8
BRANCH   2  18
HETATM   18  OAV   D T 501       0.507   0.850  11.527  1.00 58.49    -0.348 OA
HETATM   19  CAA   D T 501       1.579   0.339  12.328  1.00 58.91     0.174 C 
ENDBRANCH   2  18
BRANCH   1  20
HETATM   20  NBO   D T 501      -1.320  -0.297   9.953  1.00 52.97    -0.306 N 
HETATM   21  CBJ   D T 501      -0.955  -1.552  10.292  1.00 52.84     0.078 A 
HETATM   22  CBI   D T 501       0.206  -2.220  10.159  1.00 54.34     0.078 A 
HETATM   23  CBG   D T 501      -1.989  -2.165  10.861  1.00 49.70     0.020 A 
HETATM   24  CBH   D T 501       0.335  -3.488  10.587  1.00 53.24     0.023 A 
HETATM   25  NBN   D T 501       1.367  -1.834   9.626  1.00 56.00    -0.304 N 
HETATM   26  CBB   D T 501      -0.720  -4.103  11.158  1.00 51.65     0.061 A 
HETATM   27  CBC   D T 501       1.601  -3.869  10.320  1.00 55.43     0.018 A 
HETATM   28  CAX   D T 501      -0.909  -5.337  11.682  1.00 52.61     0.279 A 
HETATM   29  CBA   D T 501      -1.878  -3.425  11.286  1.00 50.39     0.025 A 
HETATM   30  OAD   D T 501      -0.056  -6.219  11.785  1.00 50.87    -0.265 OA
HETATM   31  NAU   D T 501      -2.141  -5.505  12.147  1.00 51.23    -0.206 NA
HETATM   32  CAS   D T 501      -2.836  -4.255  11.890  1.00 50.53     0.102 A 
HETATM   33  CAO   D T 501       2.272  -5.018  10.531  1.00 55.71     0.002 A 
HETATM   34  CBE   D T 501       2.237  -2.832   9.734  1.00 56.05     0.062 A 
HETATM   35  CAI   D T 501       3.607  -5.158  10.154  1.00 56.13     0.000 A 
HETATM   36  CAK   D T 501       4.249  -4.082   9.550  1.00 56.08     0.002 A 
HETATM   37  CAQ   D T 501       3.524  -2.911   9.350  1.00 55.62     0.017 A 
HETATM   38  CBD   D T 501      -3.014  -1.313  10.867  1.00 49.53     0.017 A 
HETATM   39  CAP   D T 501      -4.270  -1.461  11.323  1.00 47.22     0.002 A 
HETATM   40  CBF   D T 501      -2.607  -0.160  10.303  1.00 49.98     0.062 A 
HETATM   41  CAJ   D T 501      -5.191  -0.432  11.222  1.00 47.45     0.000 A 
HETATM   42  CAL   D T 501      -4.779   0.759  10.641  1.00 48.41     0.002 A 
HETATM   43  CAR   D T 501      -3.466   0.865  10.192  1.00 49.30     0.017 A 
ENDBRANCH   1  20
TORSDOF 5
ENDMDL
MODEL 2
REMARK VINA RESULT:   -10.686      2.175      5.304
REMARK INTER + INTRA:         -12.198
REMARK INTER:                 -13.639
REMARK INTRA:                   1.441
REMARK UNBOUND:                 0.987
REMARK  5 active torsions:
REMARK  status: ('A' for Active; 'I' for Inactive)
REMARK       I    between atoms: NBM_14  and  CAY_34 
REMARK    1  A    between atoms: NBM_14  and  CBL_43 
REMARK    2  A    between atoms: NBN_24  and  CBK_31 
REMARK    3  A    between atoms: CBQ_25  and  NBO_42 
REMARK    4  A    between atoms: CBP_26  and  OAV_27 
REMARK    5  A    between atoms: CAY_34  and  CAZ_36 
ROOT
HETATM    1  CBQ   D T 501       1.116  -1.507  11.980  1.00 56.13     0.192 C 
HETATM    2  CBP   D T 501       1.514  -0.727  10.687  1.00 58.89     0.181 C 
HETATM    3  CAC   D T 501       0.614  -0.480  13.001  1.00 54.70     0.057 C 
HETATM    4  OAW   D T 501       2.286  -2.088  12.586  1.00 56.41    -0.319 OA
HETATM    5  CBK   D T 501       3.353  -2.577  11.739  1.00 58.59     0.208 C 
HETATM    6  CAT   D T 501       3.777  -1.586  10.637  1.00 60.77     0.079 C 
HETATM    7  CBL   D T 501       2.967  -0.318  10.831  1.00 62.40     0.120 C 
ENDROOT
BRANCH   7   8
HETATM    8  NBM   D T 501       3.430   0.730   9.893  1.00 69.47    -0.314 N 
HETATM    9  CAB   D T 501       3.656   0.405   8.468  1.00 69.73     0.129 C 
HETATM   10  CAY   D T 501       3.725   1.980  10.367  1.00 78.65     0.257 C 
HETATM   11  OAE   D T 501       3.587   2.293  11.549  1.00 84.78    -0.267 OA
BRANCH  10  12
HETATM   12  CAZ   D T 501       4.238   2.944   9.495  1.00 83.94     0.056 A 
HETATM   13  CAM   D T 501       3.483   4.065   9.148  1.00 85.65     0.005 A 
HETATM   14  CAG   D T 501       4.021   5.029   8.292  1.00 86.83     0.000 A 
HETATM   15  CAF   D T 501       5.319   4.883   7.792  1.00 87.55     0.000 A 
HETATM   16  CAH   D T 501       6.082   3.770   8.145  1.00 86.87     0.000 A 
HETATM   17  CAN   D T 501       5.544   2.809   9.004  1.00 86.77     0.005 A 
ENDBRANCH  10  12
ENDBRANCH   7   8
BRANCH   2  18
HETATM   18  OAV   D T 501       1.370  -1.597   9.544  1.00 58.49    -0.348 OA
HETATM   19  CAA   D T 501       0.649  -1.032   8.443  1.00 58.91     0.174 C 
ENDBRANCH   2  18
BRANCH   1  20
HETATM   20  NBO   D T 501       0.145  -2.654  11.670  1.00 52.97    -0.306 N 
HETATM   21  CBJ   D T 501      -1.135  -2.485  11.276  1.00 52.84     0.078 A 
HETATM   22  CBI   D T 501      -1.868  -1.382  11.038  1.00 54.34     0.078 A 
HETATM   23  CBG   D T 501      -1.697  -3.679  11.109  1.00 49.70     0.020 A 
HETATM   24  CBH   D T 501      -3.149  -1.466  10.640  1.00 53.24     0.023 A 
HETATM   25  NBN   D T 501      -1.540  -0.092  11.136  1.00 56.00    -0.304 N 
HETATM   26  CBB   D T 501      -3.712  -2.681  10.480  1.00 51.65     0.061 A 
HETATM   27  CBC   D T 501      -3.599  -0.204  10.482  1.00 55.43     0.018 A 
HETATM   28  CAX   D T 501      -4.943  -3.094  10.096  1.00 52.61     0.279 A 
HETATM   29  CBA   D T 501      -2.970  -3.779  10.720  1.00 50.39     0.025 A 
HETATM   30  OAD   D T 501      -5.875  -2.370   9.747  1.00 50.87    -0.265 OA
HETATM   31  NAU   D T 501      -5.047  -4.418  10.077  1.00 51.23    -0.206 NA
HETATM   32  CAS   D T 501      -3.754  -4.924  10.503  1.00 50.53     0.102 A 
HETATM   33  CAO   D T 501      -4.790   0.300  10.104  1.00 55.71     0.002 A 
HETATM   34  CBE   D T 501      -2.590   0.641  10.782  1.00 56.05     0.062 A 
HETATM   35  CAI   D T 501      -5.000   1.675  10.017  1.00 56.13     0.000 A 
HETATM   36  CAK   D T 501      -3.952   2.535  10.329  1.00 56.08     0.002 A 
HETATM   37  CAQ   D T 501      -2.737   1.977  10.716  1.00 55.62     0.017 A 
HETATM   38  CBD   D T 501      -0.787  -4.604  11.415  1.00 49.53     0.017 A 
HETATM   39  CAP   D T 501      -0.870  -5.945  11.411  1.00 47.22     0.002 A 
HETATM   40  CBF   D T 501       0.351  -3.975  11.765  1.00 49.98     0.062 A 
HETATM   41  CAJ   D T 501       0.213  -6.728  11.775  1.00 47.45     0.000 A 
HETATM   42  CAL   D T 501       1.389  -6.087  12.138  1.00 48.41     0.002 A 
HETATM   43  CAR   D T 501       1.426  -4.695  12.118  1.00 49.30     0.017 A 
ENDBRANCH   1  20
TORSDOF 5
ENDMDL
MODEL 3
REMARK VINA RESULT:   -10.611      2.530      5.532
REMARK INTER + INTRA:         -12.105
REMARK INTER:                 -13.803
REMARK INTRA:                   1.698
REMARK UNBOUND:                 0.987
REMARK  5 active torsions:
REMARK  status: ('A' for Active; 'I' for Inactive)
REMARK       I    between atoms: NBM_14  and  CAY_34 
REMARK    1  A    between atoms: NBM_14  and  CBL_43 
REMARK    2  A    between atoms: NBN_24  and  CBK_31 
REMARK    3  A    between atoms: CBQ_25  and  NBO_42 
REMARK    4  A    between atoms: CBP_26  and  OAV_27 
REMARK    5  A    between atoms: CAY_34  and  CAZ_36 
ROOT
HETATM    1  CBQ   D T 501      -0.105   0.978  11.532  1.00 56.13     0.192 C 
HETATM    2  CBP   D T 501       0.777   1.253  10.273  1.00 58.89     0.181 C 
HETATM    3  CAC   D T 501      -0.745   2.307  11.947  1.00 54.70     0.057 C 
HETATM    4  OAW   D T 501       0.727   0.605  12.646  1.00 56.41    -0.319 OA
HETATM    5  CBK   D T 501       1.922  -0.177  12.407  1.00 58.59     0.208 C 
HETATM    6  CAT   D T 501       2.801   0.363  11.261  1.00 60.77     0.079 C 
HETATM    7  CBL   D T 501       2.159   1.643  10.762  1.00 62.40     0.120 C 
ENDROOT
BRANCH   7   8
HETATM    8  NBM   D T 501       3.031   2.292   9.756  1.00 69.47    -0.314 N 
HETATM    9  CAB   D T 501       3.364   1.588   8.498  1.00 69.73     0.129 C 
HETATM   10  CAY   D T 501       3.592   3.509  10.031  1.00 78.65     0.257 C 
HETATM   11  OAE   D T 501       3.375   4.121  11.077  1.00 84.78    -0.267 OA
BRANCH  10  12
HETATM   12  CAZ   D T 501       4.479   4.082   9.115  1.00 83.94     0.056 A 
HETATM   13  CAM   D T 501       4.040   5.042   8.204  1.00 85.65     0.005 A 
HETATM   14  CAG   D T 501       4.946   5.619   7.310  1.00 86.83     0.000 A 
HETATM   15  CAF   D T 501       6.294   5.249   7.334  1.00 87.55     0.000 A 
HETATM   16  CAH   D T 501       6.740   4.297   8.251  1.00 86.87     0.000 A 
HETATM   17  CAN   D T 501       5.834   3.725   9.146  1.00 86.77     0.005 A 
ENDBRANCH  10  12
ENDBRANCH   7   8
BRANCH   2  18
HETATM   18  OAV   D T 501       0.869   0.049   9.483  1.00 58.49    -0.348 OA
HETATM   19  CAA   D T 501       0.297   0.141   8.173  1.00 58.91     0.174 C 
ENDBRANCH   2  18
BRANCH   1  20
HETATM   20  NBO   D T 501      -1.086  -0.177  11.289  1.00 52.97    -0.306 N 
HETATM   21  CBJ   D T 501      -2.234  -0.069  10.588  1.00 52.84     0.078 A 
HETATM   22  CBI   D T 501      -2.799   0.964   9.937  1.00 54.34     0.078 A 
HETATM   23  CBG   D T 501      -2.852  -1.247  10.585  1.00 49.70     0.020 A 
HETATM   24  CBH   D T 501      -3.970   0.826   9.290  1.00 53.24     0.023 A 
HETATM   25  NBN   D T 501      -2.387   2.226   9.799  1.00 56.00    -0.304 N 
HETATM   26  CBB   D T 501      -4.592  -0.369   9.297  1.00 51.65     0.061 A 
HETATM   27  CBC   D T 501      -4.262   2.024   8.741  1.00 55.43     0.018 A 
HETATM   28  CAX   D T 501      -5.746  -0.824   8.754  1.00 52.61     0.279 A 
HETATM   29  CBA   D T 501      -4.018  -1.398   9.952  1.00 50.39     0.025 A 
HETATM   30  OAD   D T 501      -6.516  -0.179   8.042  1.00 50.87    -0.265 OA
HETATM   31  NAU   D T 501      -5.960  -2.106   9.025  1.00 51.23    -0.206 NA
HETATM   32  CAS   D T 501      -4.837  -2.533   9.841  1.00 50.53     0.102 A 
HETATM   33  CAO   D T 501      -5.297   2.457   7.994  1.00 55.71     0.002 A 
HETATM   34  CBE   D T 501      -3.269   2.882   9.053  1.00 56.05     0.062 A 
HETATM   35  CAI   D T 501      -5.361   3.774   7.540  1.00 56.13     0.000 A 
HETATM   36  CAK   D T 501      -4.330   4.647   7.869  1.00 56.08     0.002 A 
HETATM   37  CAQ   D T 501      -3.279   4.163   8.641  1.00 55.62     0.017 A 
HETATM   38  CBD   D T 501      -2.113  -2.096  11.298  1.00 49.53     0.017 A 
HETATM   39  CAP   D T 501      -2.311  -3.393  11.592  1.00 47.22     0.002 A 
HETATM   40  CBF   D T 501      -1.023  -1.438  11.738  1.00 49.98     0.062 A 
HETATM   41  CAJ   D T 501      -1.404  -4.095  12.367  1.00 47.45     0.000 A 
HETATM   42  CAL   D T 501      -0.279  -3.425  12.825  1.00 48.41     0.002 A 
HETATM   43  CAR   D T 501      -0.115  -2.084  12.485  1.00 49.30     0.017 A 
ENDBRANCH   1  20
TORSDOF 5
ENDMDL
MODEL 4
REMARK VINA RESULT:   -10.573      2.551      6.206
REMARK INTER + INTRA:         -12.058
REMARK INTER:                 -12.981
REMARK INTRA:                   0.923
REMARK UNBOUND:                 0.987
REMARK  5 active torsions:
REMARK  status: ('A' for Active; 'I' for Inactive)
REMARK       I    between atoms: NBM_14  and  CAY_34 
REMARK    1  A    between atoms: NBM_14  and  CBL_43 
REMARK    2  A    between atoms: NBN_24  and  CBK_31 
REMARK    3  A    between atoms: CBQ_25  and  NBO_42 
REMARK    4  A    between atoms: CBP_26  and  OAV_27 
REMARK    5  A    between atoms: CAY_34  and  CAZ_36 
ROOT
HETATM    1  CBQ   D T 501      -0.520  -2.388  11.860  1.00 56.13     0.192 C 
HETATM    2  CBP   D T 501       0.713  -2.354  10.901  1.00 58.89     0.181 C 
HETATM    3  CAC   D T 501      -0.130  -1.640  13.139  1.00 54.70     0.057 C 
HETATM    4  OAW   D T 501      -0.777  -3.740  12.286  1.00 56.41    -0.319 OA
HETATM    5  CBK   D T 501      -0.539  -4.830  11.364  1.00 58.59     0.208 C 
HETATM    6  CAT   D T 501       0.828  -4.761  10.656  1.00 60.77     0.079 C 
HETATM    7  CBL   D T 501       1.571  -3.564  11.220  1.00 62.40     0.120 C 
ENDROOT
BRANCH   7   8
HETATM    8  NBM   D T 501       2.951  -3.524  10.687  1.00 69.47    -0.314 N 
HETATM    9  CAB   D T 501       3.300  -4.287   9.468  1.00 69.73     0.129 C 
HETATM   10  CAY   D T 501       3.922  -2.844  11.372  1.00 78.65     0.257 C 
HETATM   11  OAE   D T 501       3.693  -2.221  12.409  1.00 84.78    -0.267 OA
BRANCH  10  12
HETATM   12  CAZ   D T 501       5.241  -2.875  10.911  1.00 83.94     0.056 A 
HETATM   13  CAM   D T 501       5.695  -1.934   9.986  1.00 85.65     0.005 A 
HETATM   14  CAG   D T 501       7.023  -1.968   9.554  1.00 86.83     0.000 A 
HETATM   15  CAF   D T 501       7.903  -2.932  10.053  1.00 87.55     0.000 A 
HETATM   16  CAH   D T 501       7.458  -3.867  10.987  1.00 86.87     0.000 A 
HETATM   17  CAN   D T 501       6.131  -3.830  11.421  1.00 86.77     0.005 A 
ENDBRANCH  10  12
ENDBRANCH   7   8
BRANCH   2  18
HETATM   18  OAV   D T 501       0.256  -2.435   9.535  1.00 58.49    -0.348 OA
HETATM   19  CAA   D T 501       0.888  -1.521   8.632  1.00 58.91     0.174 C 
ENDBRANCH   2  18
BRANCH   1  20
HETATM   20  NBO   D T 501      -1.788  -1.881  11.162  1.00 52.97    -0.306 N 
HETATM   21  CBJ   D T 501      -1.971  -0.612  10.738  1.00 52.84     0.078 A 
HETATM   22  CBI   D T 501      -1.177   0.473  10.772  1.00 54.34     0.078 A 
HETATM   23  CBG   D T 501      -3.181  -0.507  10.196  1.00 49.70     0.020 A 
HETATM   24  CBH   D T 501      -1.583   1.653  10.270  1.00 53.24     0.023 A 
HETATM   25  NBN   D T 501       0.056   0.624  11.258  1.00 56.00    -0.304 N 
HETATM   26  CBB   D T 501      -2.814   1.751   9.728  1.00 51.65     0.061 A 
HETATM   27  CBC   D T 501      -0.572   2.528  10.447  1.00 55.43     0.018 A 
HETATM   28  CAX   D T 501      -3.500   2.766   9.151  1.00 52.61     0.279 A 
HETATM   29  CBA   D T 501      -3.602   0.659   9.700  1.00 50.39     0.025 A 
HETATM   30  OAD   D T 501      -3.080   3.906   8.955  1.00 50.87    -0.265 OA
HETATM   31  NAU   D T 501      -4.708   2.391   8.747  1.00 51.23    -0.206 NA
HETATM   32  CAS   D T 501      -4.831   0.989   9.107  1.00 50.53     0.102 A 
HETATM   33  CAO   D T 501      -0.430   3.832  10.140  1.00 55.71     0.002 A 
HETATM   34  CBE   D T 501       0.445   1.877  11.050  1.00 56.05     0.062 A 
HETATM   35  CAI   D T 501       0.746   4.522  10.434  1.00 56.13     0.000 A 
HETATM   36  CAK   D T 501       1.786   3.839  11.057  1.00 56.08     0.002 A 
HETATM   37  CAQ   D T 501       1.601   2.493  11.358  1.00 55.62     0.017 A 
HETATM   38  CBD   D T 501      -3.775  -1.697  10.291  1.00 49.53     0.017 A 
HETATM   39  CAP   D T 501      -4.996  -2.098   9.898  1.00 47.22     0.002 A 
HETATM   40  CBF   D T 501      -2.920  -2.547  10.892  1.00 49.98     0.062 A 
HETATM   41  CAJ   D T 501      -5.420  -3.400  10.104  1.00 47.45     0.000 A 
HETATM   42  CAL   D T 501      -4.545  -4.282  10.722  1.00 48.41     0.002 A 
HETATM   43  CAR   D T 501      -3.288  -3.820  11.103  1.00 49.30     0.017 A 
ENDBRANCH   1  20
TORSDOF 5
ENDMDL
MODEL 5
REMARK VINA RESULT:   -10.129      2.239      7.337
REMARK INTER + INTRA:         -11.511
REMARK INTER:                 -12.852
REMARK INTRA:                   1.341
REMARK UNBOUND:                 0.987
REMARK  5 active torsions:
REMARK  status: ('A' for Active; 'I' for Inactive)
REMARK       I    between atoms: NBM_14  and  CAY_34 
REMARK    1  A    between atoms: NBM_14  and  CBL_43 
REMARK    2  A    between atoms: NBN_24  and  CBK_31 
REMARK    3  A    between atoms: CBQ_25  and  NBO_42 
REMARK    4  A    between atoms: CBP_26  and  OAV_27 
REMARK    5  A    between atoms: CAY_34  and  CAZ_36 
ROOT
HETATM    1  CBQ   D T 501       1.159   1.145  11.498  1.00 56.13     0.192 C 
HETATM    2  CBP   D T 501       0.133   0.505  10.510  1.00 58.89     0.181 C 
HETATM    3  CAC   D T 501       0.959   0.480  12.864  1.00 54.70     0.057 C 
HETATM    4  OAW   D T 501       0.839   2.533  11.713  1.00 56.41    -0.319 OA
HETATM    5  CBK   D T 501       0.296   3.311  10.620  1.00 58.59     0.208 C 
HETATM    6  CAT   D T 501      -0.865   2.619   9.879  1.00 60.77     0.079 C 
HETATM    7  CBL   D T 501      -1.148   1.313  10.597  1.00 62.40     0.120 C 
ENDROOT
BRANCH   7   8
HETATM    8  NBM   D T 501      -2.349   0.666  10.023  1.00 69.47    -0.314 N 
HETATM    9  CAB   D T 501      -2.950   1.187   8.775  1.00 69.73     0.129 C 
HETATM   10  CAY   D T 501      -2.949  -0.364  10.695  1.00 78.65     0.257 C 
HETATM   11  OAE   D T 501      -2.510  -0.814  11.754  1.00 84.78    -0.267 OA
BRANCH  10  12
HETATM   12  CAZ   D T 501      -4.129  -0.920  10.194  1.00 83.94     0.056 A 
HETATM   13  CAM   D T 501      -4.214  -2.286   9.921  1.00 85.65     0.005 A 
HETATM   14  CAG   D T 501      -5.409  -2.827   9.441  1.00 86.83     0.000 A 
HETATM   15  CAF   D T 501      -6.525  -2.009   9.244  1.00 87.55     0.000 A 
HETATM   16  CAH   D T 501      -6.450  -0.645   9.526  1.00 86.87     0.000 A 
HETATM   17  CAN   D T 501      -5.256  -0.106  10.010  1.00 86.77     0.005 A 
ENDBRANCH  10  12
ENDBRANCH   7   8
BRANCH   2  18
HETATM   18  OAV   D T 501       0.657   0.578   9.167  1.00 58.49    -0.348 OA
HETATM   19  CAA   D T 501       0.530  -0.627   8.403  1.00 58.91     0.174 C 
ENDBRANCH   2  18
BRANCH   1  20
HETATM   20  NBO   D T 501       2.588   1.087  10.941  1.00 52.97    -0.306 N 
HETATM   21  CBJ   D T 501       3.294  -0.050  10.768  1.00 52.84     0.078 A 
HETATM   22  CBI   D T 501       2.990  -1.343  10.984  1.00 54.34     0.078 A 
HETATM   23  CBG   D T 501       4.495   0.256  10.286  1.00 49.70     0.020 A 
HETATM   24  CBH   D T 501       3.874  -2.321  10.725  1.00 53.24     0.023 A 
HETATM   25  NBN   D T 501       1.873  -1.898  11.459  1.00 56.00    -0.304 N 
HETATM   26  CBB   D T 501       5.091  -2.001  10.242  1.00 51.65     0.061 A 
HETATM   27  CBC   D T 501       3.275  -3.490  11.036  1.00 55.43     0.018 A 
HETATM   28  CAX   D T 501       6.174  -2.731   9.884  1.00 52.61     0.279 A 
HETATM   29  CBA   D T 501       5.386  -0.704  10.029  1.00 50.39     0.025 A 
HETATM   30  OAD   D T 501       6.257  -3.959   9.895  1.00 50.87    -0.265 OA
HETATM   31  NAU   D T 501       7.172  -1.972   9.448  1.00 51.23    -0.206 NA
HETATM   32  CAS   D T 501       6.699  -0.601   9.540  1.00 50.53     0.102 A 
HETATM   33  CAO   D T 501       3.687  -4.771  10.976  1.00 55.71     0.002 A 
HETATM   34  CBE   D T 501       2.030  -3.217  11.480  1.00 56.05     0.062 A 
HETATM   35  CAI   D T 501       2.853  -5.819  11.365  1.00 56.13     0.000 A 
HETATM   36  CAK   D T 501       1.573  -5.523  11.821  1.00 56.08     0.002 A 
HETATM   37  CAQ   D T 501       1.184  -4.188  11.868  1.00 55.62     0.017 A 
HETATM   38  CBD   D T 501       4.563   1.583  10.172  1.00 49.53     0.017 A 
HETATM   39  CAP   D T 501       5.561   2.373   9.741  1.00 47.22     0.002 A 
HETATM   40  CBF   D T 501       3.387   2.100  10.579  1.00 49.98     0.062 A 
HETATM   41  CAJ   D T 501       5.417   3.750   9.710  1.00 47.45     0.000 A 
HETATM   42  CAL   D T 501       4.210   4.291  10.129  1.00 48.41     0.002 A 
HETATM   43  CAR   D T 501       3.204   3.429  10.557  1.00 49.30     0.017 A 
ENDBRANCH   1  20
TORSDOF 5
ENDMDL
MODEL 6
REMARK VINA RESULT:    -9.061      3.111      7.804
REMARK INTER + INTRA:         -10.193
REMARK INTER:                 -11.160
REMARK INTRA:                   0.967
REMARK UNBOUND:                 0.987
REMARK  5 active torsions:
REMARK  status: ('A' for Active; 'I' for Inactive)
REMARK       I    between atoms: NBM_14  and  CAY_34 
REMARK    1  A    between atoms: NBM_14  and  CBL_43 
REMARK    2  A    between atoms: NBN_24  and  CBK_31 
REMARK    3  A    between atoms: CBQ_25  and  NBO_42 
REMARK    4  A    between atoms: CBP_26  and  OAV_27 
REMARK    5  A    between atoms: CAY_34  and  CAZ_36 
ROOT
HETATM    1  CBQ   D T 501       3.491  -2.999   9.783  1.00 56.13     0.192 C 
HETATM    2  CBP   D T 501       3.537  -3.388  11.294  1.00 58.89     0.181 C 
HETATM    3  CAC   D T 501       2.772  -4.128   9.037  1.00 54.70     0.057 C 
HETATM    4  OAW   D T 501       4.824  -2.985   9.236  1.00 56.41    -0.319 OA
HETATM    5  CBK   D T 501       5.926  -2.553  10.068  1.00 58.59     0.208 C 
HETATM    6  CAT   D T 501       5.945  -3.204  11.465  1.00 60.77     0.079 C 
HETATM    7  CBL   D T 501       4.800  -4.197  11.518  1.00 62.40     0.120 C 
ENDROOT
BRANCH   7   8
HETATM    8  NBM   D T 501       4.849  -4.964  12.783  1.00 69.47    -0.314 N 
HETATM    9  CAB   D T 501       5.820  -4.596  13.838  1.00 69.73     0.129 C 
HETATM   10  CAY   D T 501       4.051  -6.064  12.940  1.00 78.65     0.257 C 
HETATM   11  OAE   D T 501       3.251  -6.434  12.080  1.00 84.78    -0.267 OA
BRANCH  10  12
HETATM   12  CAZ   D T 501       4.157  -6.835  14.101  1.00 83.94     0.056 A 
HETATM   13  CAM   D T 501       3.338  -6.581  15.202  1.00 85.65     0.005 A 
HETATM   14  CAG   D T 501       3.444  -7.375  16.346  1.00 86.83     0.000 A 
HETATM   15  CAF   D T 501       4.359  -8.431  16.390  1.00 87.55     0.000 A 
HETATM   16  CAH   D T 501       5.172  -8.697  15.288  1.00 86.87     0.000 A 
HETATM   17  CAN   D T 501       5.062  -7.905  14.143  1.00 86.77     0.005 A 
ENDBRANCH  10  12
ENDBRANCH   7   8
BRANCH   2  18
HETATM   18  OAV   D T 501       3.586  -2.188  12.094  1.00 58.49    -0.348 OA
HETATM   19  CAA   D T 501       2.732  -2.192  13.243  1.00 58.91     0.174 C 
ENDBRANCH   2  18
BRANCH   1  20
HETATM   20  NBO   D T 501       2.901  -1.597   9.581  1.00 52.97    -0.306 N 
HETATM   21  CBJ   D T 501       1.610  -1.272   9.804  1.00 52.84     0.078 A 
HETATM   22  CBI   D T 501       0.563  -1.992  10.246  1.00 54.34     0.078 A 
HETATM   23  CBG   D T 501       1.431   0.014   9.515  1.00 49.70     0.020 A 
HETATM   24  CBH   D T 501      -0.652  -1.437  10.398  1.00 53.24     0.023 A 
HETATM   25  NBN   D T 501       0.485  -3.278  10.592  1.00 56.00    -0.304 N 
HETATM   26  CBB   D T 501      -0.825  -0.134  10.097  1.00 51.65     0.061 A 
HETATM   27  CBC   D T 501      -1.475  -2.404  10.856  1.00 55.43     0.018 A 
HETATM   28  CAX   D T 501      -1.891   0.699  10.143  1.00 52.61     0.279 A 
HETATM   29  CBA   D T 501       0.229   0.578   9.655  1.00 50.39     0.025 A 
HETATM   30  OAD   D T 501      -3.019   0.413  10.545  1.00 50.87    -0.265 OA
HETATM   31  NAU   D T 501      -1.586   1.930   9.748  1.00 51.23    -0.206 NA
HETATM   32  CAS   D T 501      -0.178   1.896   9.394  1.00 50.53     0.102 A 
HETATM   33  CAO   D T 501      -2.782  -2.411  11.180  1.00 55.71     0.002 A 
HETATM   34  CBE   D T 501      -0.757  -3.539  10.984  1.00 56.05     0.062 A 
HETATM   35  CAI   D T 501      -3.408  -3.568  11.642  1.00 56.13     0.000 A 
HETATM   36  CAK   D T 501      -2.656  -4.732  11.768  1.00 56.08     0.002 A 
HETATM   37  CAQ   D T 501      -1.309  -4.684  11.424  1.00 55.62     0.017 A 
HETATM   38  CBD   D T 501       2.596   0.502   9.091  1.00 49.53     0.017 A 
HETATM   39  CAP   D T 501       2.928   1.738   8.679  1.00 47.22     0.002 A 
HETATM   40  CBF   D T 501       3.506  -0.491   9.126  1.00 49.98     0.062 A 
HETATM   41  CAJ   D T 501       4.218   2.031   8.268  1.00 47.45     0.000 A 
HETATM   42  CAL   D T 501       5.160   1.013   8.300  1.00 48.41     0.002 A 
HETATM   43  CAR   D T 501       4.769  -0.247   8.743  1.00 49.30     0.017 A 
ENDBRANCH   1  20
TORSDOF 5
ENDMDL
MODEL 7
REMARK VINA RESULT:    -8.960      2.221      4.140
REMARK INTER + INTRA:         -10.068
REMARK INTER:                 -13.991
REMARK INTRA:                   3.923
REMARK UNBOUND:                 0.987
REMARK  5 active torsions:
REMARK  status: ('A' for Active; 'I' for Inactive)
REMARK       I    between atoms: NBM_14  and  CAY_34 
REMARK    1  A    between atoms: NBM_14  and  CBL_43 
REMARK    2  A    between atoms: NBN_24  and  CBK_31 
REMARK    3  A    between atoms: CBQ_25  and  NBO_42 
REMARK    4  A    between atoms: CBP_26  and  OAV_27 
REMARK    5  A    between atoms: CAY_34  and  CAZ_36 
ROOT
HETATM    1  CBQ   D T 501       0.207  -1.222  11.476  1.00 56.13     0.192 C 
HETATM    2  CBP   D T 501       1.238  -0.358  10.683  1.00 58.89     0.181 C 
HETATM    3  CAC   D T 501       0.474  -1.004  12.969  1.00 54.70     0.057 C 
HETATM    4  OAW   D T 501       0.462  -2.622  11.256  1.00 56.41    -0.319 OA
HETATM    5  CBK   D T 501       0.937  -3.060   9.961  1.00 58.59     0.208 C 
HETATM    6  CAT   D T 501       2.113  -2.226   9.414  1.00 60.77     0.079 C 
HETATM    7  CBL   D T 501       2.479  -1.207  10.476  1.00 62.40     0.120 C 
ENDROOT
BRANCH   7   8
HETATM    8  NBM   D T 501       3.696  -0.467  10.074  1.00 69.47    -0.314 N 
HETATM    9  CAB   D T 501       4.249  -0.631   8.711  1.00 69.73     0.129 C 
HETATM   10  CAY   D T 501       4.354   0.305  10.993  1.00 78.65     0.257 C 
HETATM   11  OAE   D T 501       3.956   0.448  12.149  1.00 84.78    -0.267 OA
BRANCH  10  12
HETATM   12  CAZ   D T 501       5.548   0.937  10.635  1.00 83.94     0.056 A 
HETATM   13  CAM   D T 501       6.772   0.288  10.791  1.00 85.65     0.005 A 
HETATM   14  CAG   D T 501       7.953   0.929  10.408  1.00 86.83     0.000 A 
HETATM   15  CAF   D T 501       7.913   2.212   9.856  1.00 87.55     0.000 A 
HETATM   16  CAH   D T 501       6.690   2.861   9.686  1.00 86.87     0.000 A 
HETATM   17  CAN   D T 501       5.510   2.218  10.066  1.00 86.77     0.005 A 
ENDBRANCH  10  12
ENDBRANCH   7   8
BRANCH   2  18
HETATM   18  OAV   D T 501       0.677  -0.006   9.401  1.00 58.49    -0.348 OA
HETATM   19  CAA   D T 501       1.228   1.174   8.805  1.00 58.91     0.174 C 
ENDBRANCH   2  18
BRANCH   1  20
HETATM   20  NBO   D T 501      -1.231  -0.943  11.018  1.00 52.97    -0.306 N 
HETATM   21  CBJ   D T 501      -2.186  -1.887  10.881  1.00 52.84     0.078 A 
HETATM   22  CBI   D T 501      -2.179  -3.214  11.102  1.00 54.34     0.078 A 
HETATM   23  CBG   D T 501      -3.305  -1.312  10.452  1.00 49.70     0.020 A 
HETATM   24  CBH   D T 501      -3.278  -3.962  10.897  1.00 53.24     0.023 A 
HETATM   25  NBN   D T 501      -1.197  -4.014  11.521  1.00 56.00    -0.304 N 
HETATM   26  CBB   D T 501      -4.406  -3.371  10.456  1.00 51.65     0.061 A 
HETATM   27  CBC   D T 501      -2.955  -5.235  11.210  1.00 55.43     0.018 A 
HETATM   28  CAX   D T 501      -5.646  -3.830  10.164  1.00 52.61     0.279 A 
HETATM   29  CBA   D T 501      -4.402  -2.042  10.238  1.00 50.39     0.025 A 
HETATM   30  OAD   D T 501      -6.039  -4.990  10.291  1.00 50.87    -0.265 OA
HETATM   31  NAU   D T 501      -6.459  -2.861   9.758  1.00 51.23    -0.206 NA
HETATM   32  CAS   D T 501      -5.667  -1.644   9.775  1.00 50.53     0.102 A 
HETATM   33  CAO   D T 501      -3.657  -6.384  11.193  1.00 55.71     0.002 A 
HETATM   34  CBE   D T 501      -1.665  -5.254  11.607  1.00 56.05     0.062 A 
HETATM   35  CAI   D T 501      -3.076  -7.593  11.576  1.00 56.13     0.000 A 
HETATM   36  CAK   D T 501      -1.746  -7.599  11.983  1.00 56.08     0.002 A 
HETATM   37  CAQ   D T 501      -1.055  -6.391  11.987  1.00 55.62     0.017 A 
HETATM   38  CBD   D T 501      -3.061  -0.011  10.297  1.00 49.53     0.017 A 
HETATM   39  CAP   D T 501      -3.862   0.986   9.882  1.00 47.22     0.002 A 
HETATM   40  CBF   D T 501      -1.779   0.221  10.641  1.00 49.98     0.062 A 
HETATM   41  CAJ   D T 501      -3.394   2.285   9.787  1.00 47.45     0.000 A 
HETATM   42  CAL   D T 501      -2.075   2.532  10.139  1.00 48.41     0.002 A 
HETATM   43  CAR   D T 501      -1.288   1.467  10.571  1.00 49.30     0.017 A 
ENDBRANCH   1  20
TORSDOF 5
ENDMDL
MODEL 8
REMARK VINA RESULT:    -8.949      1.854      3.238
REMARK INTER + INTRA:         -10.055
REMARK INTER:                 -13.998
REMARK INTRA:                   3.943
REMARK UNBOUND:                 0.987
REMARK  5 active torsions:
REMARK  status: ('A' for Active; 'I' for Inactive)
REMARK       I    between atoms: NBM_14  and  CAY_34 
REMARK    1  A    between atoms: NBM_14  and  CBL_43 
REMARK    2  A    between atoms: NBN_24  and  CBK_31 
REMARK    3  A    between atoms: CBQ_25  and  NBO_42 
REMARK    4  A    between atoms: CBP_26  and  OAV_27 
REMARK    5  A    between atoms: CAY_34  and  CAZ_36 
ROOT
HETATM    1  CBQ   D T 501       0.573  -1.046  11.537  1.00 56.13     0.192 C 
HETATM    2  CBP   D T 501       1.079   0.072  10.571  1.00 58.89     0.181 C 
HETATM    3  CAC   D T 501       0.936  -0.622  12.964  1.00 54.70     0.057 C 
HETATM    4  OAW   D T 501       1.310  -2.263  11.315  1.00 56.41    -0.319 OA
HETATM    5  CBK   D T 501       1.737  -2.596   9.972  1.00 58.59     0.208 C 
HETATM    6  CAT   D T 501       2.420  -1.432   9.228  1.00 60.77     0.079 C 
HETATM    7  CBL   D T 501       2.509  -0.266  10.194  1.00 62.40     0.120 C 
ENDROOT
BRANCH   7   8
HETATM    8  NBM   D T 501       3.286   0.839   9.589  1.00 69.47    -0.314 N 
HETATM    9  CAB   D T 501       3.780   0.726   8.198  1.00 69.73     0.129 C 
HETATM   10  CAY   D T 501       3.615   1.930  10.346  1.00 78.65     0.257 C 
HETATM   11  OAE   D T 501       3.258   2.059  11.518  1.00 84.78    -0.267 OA
BRANCH  10  12
HETATM   12  CAZ   D T 501       4.417   2.935   9.798  1.00 83.94     0.056 A 
HETATM   13  CAM   D T 501       3.845   4.018   9.130  1.00 85.65     0.005 A 
HETATM   14  CAG   D T 501       4.662   5.023   8.606  1.00 86.83     0.000 A 
HETATM   15  CAF   D T 501       6.050   4.956   8.761  1.00 87.55     0.000 A 
HETATM   16  CAH   D T 501       6.626   3.881   9.439  1.00 86.87     0.000 A 
HETATM   17  CAN   D T 501       5.808   2.879   9.965  1.00 86.77     0.005 A 
ENDBRANCH  10  12
ENDBRANCH   7   8
BRANCH   2  18
HETATM   18  OAV   D T 501       0.258   0.083   9.384  1.00 58.49    -0.348 OA
HETATM   19  CAA   D T 501       0.164   1.352   8.727  1.00 58.91     0.174 C 
ENDBRANCH   2  18
BRANCH   1  20
HETATM   20  NBO   D T 501      -0.910  -1.362  11.302  1.00 52.97    -0.306 N 
HETATM   21  CBJ   D T 501      -1.433  -2.607  11.290  1.00 52.84     0.078 A 
HETATM   22  CBI   D T 501      -0.880  -3.819  11.481  1.00 54.34     0.078 A 
HETATM   23  CBG   D T 501      -2.737  -2.526  11.043  1.00 49.70     0.020 A 
HETATM   24  CBH   D T 501      -1.620  -4.940  11.425  1.00 53.24     0.023 A 
HETATM   25  NBN   D T 501       0.385  -4.159  11.734  1.00 56.00    -0.304 N 
HETATM   26  CBB   D T 501      -2.940  -4.849  11.169  1.00 51.65     0.061 A 
HETATM   27  CBC   D T 501      -0.787  -5.976  11.662  1.00 55.43     0.018 A 
HETATM   28  CAX   D T 501      -3.933  -5.763  11.054  1.00 52.61     0.279 A 
HETATM   29  CBA   D T 501      -3.483  -3.631  10.979  1.00 50.39     0.025 A 
HETATM   30  OAD   D T 501      -3.822  -6.978  11.215  1.00 50.87    -0.265 OA
HETATM   31  NAU   D T 501      -5.107  -5.201  10.793  1.00 51.23    -0.206 NA
HETATM   32  CAS   D T 501      -4.856  -3.772  10.716  1.00 50.53     0.102 A 
HETATM   33  CAO   D T 501      -0.982  -7.307  11.727  1.00 55.71     0.002 A 
HETATM   34  CBE   D T 501       0.452  -5.480  11.864  1.00 56.05     0.062 A 
HETATM   35  CAI   D T 501       0.070  -8.181  11.995  1.00 56.13     0.000 A 
HETATM   36  CAK   D T 501       1.342  -7.657  12.200  1.00 56.08     0.002 A 
HETATM   37  CAQ   D T 501       1.503  -6.277  12.126  1.00 55.62     0.017 A 
HETATM   38  CBD   D T 501      -3.042  -1.239  10.878  1.00 49.53     0.017 A 
HETATM   39  CAP   D T 501      -4.218  -0.647  10.606  1.00 47.22     0.002 A 
HETATM   40  CBF   D T 501      -1.915  -0.517  11.034  1.00 49.98     0.062 A 
HETATM   41  CAJ   D T 501      -4.309   0.728  10.469  1.00 47.45     0.000 A 
HETATM   42  CAL   D T 501      -3.153   1.478  10.627  1.00 48.41     0.002 A 
HETATM   43  CAR   D T 501      -1.962   0.819  10.916  1.00 49.30     0.017 A 
ENDBRANCH   1  20
TORSDOF 5
ENDMDL
MODEL 9
REMARK VINA RESULT:    -8.949      2.928      6.471
REMARK INTER + INTRA:         -10.055
REMARK INTER:                 -12.490
REMARK INTRA:                   2.435
REMARK UNBOUND:                 0.987
REMARK  5 active torsions:
REMARK  status: ('A' for Active; 'I' for Inactive)
REMARK       I    between atoms: NBM_14  and  CAY_34 
REMARK    1  A    between atoms: NBM_14  and  CBL_43 
REMARK    2  A    between atoms: NBN_24  and  CBK_31 
REMARK    3  A    between atoms: CBQ_25  and  NBO_42 
REMARK    4  A    between atoms: CBP_26  and  OAV_27 
REMARK    5  A    between atoms: CAY_34  and  CAZ_36 
ROOT
HETATM    1  CBQ   D T 501       1.639  -1.252  10.332  1.00 56.13     0.192 C 
HETATM    2  CBP   D T 501       2.174  -1.656  11.742  1.00 58.89     0.181 C 
HETATM    3  CAC   D T 501       1.172  -2.532   9.631  1.00 54.70     0.057 C 
HETATM    4  OAW   D T 501       2.719  -0.758   9.517  1.00 56.41    -0.319 OA
HETATM    5  CBK   D T 501       3.785  -0.000  10.138  1.00 58.59     0.208 C 
HETATM    6  CAT   D T 501       4.354  -0.655  11.412  1.00 60.77     0.079 C 
HETATM    7  CBL   D T 501       3.647  -1.985  11.594  1.00 62.40     0.120 C 
ENDROOT
BRANCH   7   8
HETATM    8  NBM   D T 501       4.250  -2.733  12.720  1.00 69.47    -0.314 N 
HETATM    9  CAB   D T 501       5.557  -2.315  13.274  1.00 69.73     0.129 C 
HETATM   10  CAY   D T 501       3.633  -3.859  13.192  1.00 78.65     0.257 C 
HETATM   11  OAE   D T 501       2.562  -4.269  12.744  1.00 84.78    -0.267 OA
BRANCH  10  12
HETATM   12  CAZ   D T 501       4.245  -4.609  14.201  1.00 83.94     0.056 A 
HETATM   13  CAM   D T 501       4.000  -4.328  15.545  1.00 85.65     0.005 A 
HETATM   14  CAG   D T 501       4.603  -5.103  16.539  1.00 86.83     0.000 A 
HETATM   15  CAF   D T 501       5.442  -6.167  16.192  1.00 87.55     0.000 A 
HETATM   16  CAH   D T 501       5.680  -6.459  14.849  1.00 86.87     0.000 A 
HETATM   17  CAN   D T 501       5.073  -5.687  13.857  1.00 86.77     0.005 A 
ENDBRANCH  10  12
ENDBRANCH   7   8
BRANCH   2  18
HETATM   18  OAV   D T 501       2.018  -0.543  12.647  1.00 58.49    -0.348 OA
HETATM   19  CAA   D T 501       0.889  -0.630  13.524  1.00 58.91     0.174 C 
ENDBRANCH   2  18
BRANCH   1  20
HETATM   20  NBO   D T 501       0.591  -0.135  10.427  1.00 52.97    -0.306 N 
HETATM   21  CBJ   D T 501      -0.736  -0.342  10.560  1.00 52.84     0.078 A 
HETATM   22  CBI   D T 501      -1.467  -1.467  10.662  1.00 54.34     0.078 A 
HETATM   23  CBG   D T 501      -1.356   0.834  10.594  1.00 49.70     0.020 A 
HETATM   24  CBH   D T 501      -2.804  -1.422  10.796  1.00 53.24     0.023 A 
HETATM   25  NBN   D T 501      -1.088  -2.746  10.650  1.00 56.00    -0.304 N 
HETATM   26  CBB   D T 501      -3.425  -0.226  10.824  1.00 51.65     0.061 A 
HETATM   27  CBC   D T 501      -3.238  -2.697  10.879  1.00 55.43     0.018 A 
HETATM   28  CAX   D T 501      -4.720   0.150  10.948  1.00 52.61     0.279 A 
HETATM   29  CBA   D T 501      -2.684   0.895  10.720  1.00 50.39     0.025 A 
HETATM   30  OAD   D T 501      -5.680  -0.601  11.115  1.00 50.87    -0.265 OA
HETATM   31  NAU   D T 501      -4.866   1.470  10.927  1.00 51.23    -0.206 NA
HETATM   32  CAS   D T 501      -3.530   2.015  10.760  1.00 50.53     0.102 A 
HETATM   33  CAO   D T 501      -4.464  -3.236  11.020  1.00 55.71     0.002 A 
HETATM   34  CBE   D T 501      -2.164  -3.511  10.798  1.00 56.05     0.062 A 
HETATM   35  CAI   D T 501      -4.645  -4.618  11.082  1.00 56.13     0.000 A 
HETATM   36  CAK   D T 501      -3.530  -5.444  10.997  1.00 56.08     0.002 A 
HETATM   37  CAQ   D T 501      -2.280  -4.850  10.853  1.00 55.62     0.017 A 
HETATM   38  CBD   D T 501      -0.433   1.786  10.463  1.00 49.53     0.017 A 
HETATM   39  CAP   D T 501      -0.555   3.124  10.431  1.00 47.22     0.002 A 
HETATM   40  CBF   D T 501       0.771   1.191  10.355  1.00 49.98     0.062 A 
HETATM   41  CAJ   D T 501       0.554   3.938  10.279  1.00 47.45     0.000 A 
HETATM   42  CAL   D T 501       1.798   3.334  10.166  1.00 48.41     0.002 A 
HETATM   43  CAR   D T 501       1.873   1.944  10.214  1.00 49.30     0.017 A 
ENDBRANCH   1  20
TORSDOF 5
ENDMDL
