MODEL 1
REMARK VINA RESULT:      -8.0      0.000      0.000
REMARK  6 active torsions:
REMARK  status: ('A' for Active; 'I' for Inactive)
REMARK    1  A    between atoms: NBF_3  and  CAN_4 
REMARK    2  A    between atoms: NBG_8  and  CAS_9 
REMARK    3  A    between atoms: CAS_9  and  CAX_10 
REMARK    4  A    between atoms: CAY_15  and  CBA_16 
REMARK    5  A    between atoms: NAV_25  and  CBE_26 
REMARK    6  A    between atoms: CBE_26  and  CAZ_28 
ROOT
HETATM    1  CBA   D T2019       5.390   9.651   4.354  1.00 67.38     0.083 A 
HETATM    2  NAW   D T2019       6.509  10.214   4.832  1.00 64.38    -0.227 NA
HETATM    3  CAM   D T2019       4.987   8.697   5.196  1.00 64.23     0.025 A 
HETATM    4  C5    D T2019       5.829   8.671   6.224  1.00 64.03     0.073 A 
HETATM    5  C4    D T2019       6.796   9.637   5.995  1.00 64.35     0.167 A 
HETATM    6  N3    D T2019       7.788   9.809   6.894  1.00 65.15    -0.205 NA
HETATM    7  C2    D T2019       7.859   9.058   8.000  1.00 64.91     0.202 A 
HETATM    8  N1    D T2019       6.947   8.127   8.247  1.00 65.23    -0.205 NA
HETATM    9  C6    D T2019       5.916   7.906   7.387  1.00 65.21     0.163 A 
HETATM   10  NAV   D T2019       4.998   6.960   7.639  1.00 66.46    -0.250 NA
ENDROOT
BRANCH   1  11
HETATM   11  CAY   D T2019       4.780   9.976   3.140  1.00 67.34     0.018 A 
HETATM   12  CAK   D T2019       5.551  10.329   2.023  1.00 69.05     0.001 A 
HETATM   13  CAI   D T2019       4.920  10.625   0.812  1.00 70.54    -0.002 A 
HETATM   14  CAX   D T2019       3.526  10.565   0.729  1.00 71.07     0.011 A 
HETATM   15  CAJ   D T2019       2.761  10.195   1.830  1.00 68.91    -0.002 A 
HETATM   16  CAL   D T2019       3.393   9.900   3.033  1.00 67.71     0.001 A 
BRANCH  14  17
HETATM   17  CAS   D T2019       2.830  10.840  -0.602  1.00 74.21     0.277 C 
BRANCH  17  18
HETATM   18  NBG   D T2019       2.406  12.279  -0.511  1.00 81.39     0.146 N 
HETATM   19  CAQ   D T2019       0.927  12.421  -0.467  1.00 83.32     0.286 C 
HETATM   20  CAO   D T2019       0.342  12.311  -1.896  1.00 86.22     0.285 C 
HETATM   21  NBF   D T2019       0.901  13.341  -2.832  1.00 86.50     0.141 N 
HETATM   22  CAP   D T2019       2.397  13.426  -2.859  1.00 84.69     0.285 C 
HETATM   23  CAR   D T2019       3.104  13.182  -1.494  1.00 81.90     0.286 C 
BRANCH  21  24
HETATM   24  CAN   D T2019       0.238  14.664  -2.647  1.00 86.80     0.251 C 
HETATM   25  CAA   D T2019      -1.304  14.519  -2.671  1.00 86.31     0.037 C 
ENDBRANCH  21  24
ENDBRANCH  17  18
ENDBRANCH  14  17
ENDBRANCH   1  11
BRANCH  10  26
HETATM   26  CBE   D T2019       5.315   5.878   8.580  1.00 69.45     0.127 C 
HETATM   27  CAB   D T2019       6.178   4.781   7.937  1.00 70.81     0.031 C 
BRANCH  26  28
HETATM   28  CAZ   D T2019       3.989   5.321   9.116  1.00 71.15    -0.000 A 
HETATM   29  CAG   D T2019       2.772   5.924   8.715  1.00 70.34    -0.002 A 
HETATM   30  CAD   D T2019       1.542   5.460   9.195  1.00 69.22    -0.000 A 
HETATM   31  CAC   D T2019       1.558   4.375  10.082  1.00 70.75    -0.000 A 
HETATM   32  CAE   D T2019       2.766   3.769  10.480  1.00 71.52    -0.000 A 
HETATM   33  CAH   D T2019       3.996   4.241  10.014  1.00 71.18    -0.002 A 
ENDBRANCH  26  28
ENDBRANCH  10  26
TORSDOF 6
ENDMDL
MODEL 2
REMARK VINA RESULT:      -7.9      4.073     12.452
REMARK  6 active torsions:
REMARK  status: ('A' for Active; 'I' for Inactive)
REMARK    1  A    between atoms: NBF_3  and  CAN_4 
REMARK    2  A    between atoms: NBG_8  and  CAS_9 
REMARK    3  A    between atoms: CAS_9  and  CAX_10 
REMARK    4  A    between atoms: CAY_15  and  CBA_16 
REMARK    5  A    between atoms: NAV_25  and  CBE_26 
REMARK    6  A    between atoms: CBE_26  and  CAZ_28 
ROOT
HETATM    1  CBA   D T2019       2.622   5.964   8.385  1.00 67.38     0.083 A 
HETATM    2  NAW   D T2019       1.281   5.954   8.403  1.00 64.38    -0.227 NA
HETATM    3  CAM   D T2019       3.041   6.809   7.441  1.00 64.23     0.025 A 
HETATM    4  C5    D T2019       1.971   7.360   6.877  1.00 64.03     0.073 A 
HETATM    5  C4    D T2019       0.851   6.820   7.490  1.00 64.35     0.167 A 
HETATM    6  N3    D T2019      -0.378   7.207   7.087  1.00 65.15    -0.205 NA
HETATM    7  C2    D T2019      -0.535   8.100   6.102  1.00 64.91     0.202 A 
HETATM    8  N1    D T2019       0.518   8.636   5.499  1.00 65.23    -0.205 NA
HETATM    9  C6    D T2019       1.785   8.296   5.859  1.00 65.21     0.163 A 
HETATM   10  NAV   D T2019       2.846   8.837   5.242  1.00 66.46    -0.250 NA
ENDROOT
BRANCH   1  11
HETATM   11  CAY   D T2019       3.443   5.171   9.190  1.00 67.34     0.018 A 
HETATM   12  CAK   D T2019       2.944   4.580  10.360  1.00 69.05     0.001 A 
HETATM   13  CAI   D T2019       3.778   3.770  11.136  1.00 70.54    -0.002 A 
HETATM   14  CAX   D T2019       5.100   3.559  10.735  1.00 71.07     0.011 A 
HETATM   15  CAJ   D T2019       5.591   4.127   9.564  1.00 68.91    -0.002 A 
HETATM   16  CAL   D T2019       4.758   4.931   8.795  1.00 67.71     0.001 A 
BRANCH  14  17
HETATM   17  CAS   D T2019       6.004   2.637  11.550  1.00 74.21     0.277 C 
BRANCH  17  18
HETATM   18  NBG   D T2019       7.133   3.522  12.000  1.00 81.39     0.146 N 
HETATM   19  CAQ   D T2019       8.391   2.758  12.205  1.00 83.32     0.286 C 
HETATM   20  CAO   D T2019       8.363   2.050  13.581  1.00 86.22     0.285 C 
HETATM   21  NBF   D T2019       8.185   3.008  14.721  1.00 86.50     0.141 N 
HETATM   22  CAP   D T2019       7.039   3.962  14.573  1.00 84.69     0.285 C 
HETATM   23  CAR   D T2019       6.763   4.455  13.124  1.00 81.90     0.286 C 
BRANCH  21  24
HETATM   24  CAN   D T2019       9.469   3.679  15.077  1.00 86.80     0.251 C 
HETATM   25  CAA   D T2019       9.216   4.936  15.944  1.00 86.31     0.037 C 
ENDBRANCH  21  24
ENDBRANCH  17  18
ENDBRANCH  14  17
ENDBRANCH   1  11
BRANCH  10  26
HETATM   26  CBE   D T2019       2.680   9.445   3.916  1.00 69.45     0.127 C 
HETATM   27  CAB   D T2019       2.548   8.392   2.805  1.00 70.81     0.031 C 
BRANCH  26  28
HETATM   28  CAZ   D T2019       3.871  10.382   3.678  1.00 71.15    -0.000 A 
HETATM   29  CAG   D T2019       3.667  11.600   2.986  1.00 70.34    -0.002 A 
HETATM   30  CAD   D T2019       4.730  12.475   2.731  1.00 69.22    -0.000 A 
HETATM   31  CAC   D T2019       6.001  12.104   3.189  1.00 70.75    -0.000 A 
HETATM   32  CAE   D T2019       6.209  10.895   3.882  1.00 71.52    -0.000 A 
HETATM   33  CAH   D T2019       5.152  10.013   4.124  1.00 71.18    -0.002 A 
ENDBRANCH  26  28
ENDBRANCH  10  26
TORSDOF 6
ENDMDL
MODEL 3
REMARK VINA RESULT:      -7.6      1.728      2.718
REMARK  6 active torsions:
REMARK  status: ('A' for Active; 'I' for Inactive)
REMARK    1  A    between atoms: NBF_3  and  CAN_4 
REMARK    2  A    between atoms: NBG_8  and  CAS_9 
REMARK    3  A    between atoms: CAS_9  and  CAX_10 
REMARK    4  A    between atoms: CAY_15  and  CBA_16 
REMARK    5  A    between atoms: NAV_25  and  CBE_26 
REMARK    6  A    between atoms: CBE_26  and  CAZ_28 
ROOT
HETATM    1  CBA   D T2019       5.012   8.474   4.900  1.00 67.38     0.083 A 
HETATM    2  NAW   D T2019       5.951   7.516   4.886  1.00 64.38    -0.227 NA
HETATM    3  CAM   D T2019       4.257   8.329   5.991  1.00 64.23     0.025 A 
HETATM    4  C5    D T2019       4.730   7.301   6.687  1.00 64.03     0.073 A 
HETATM    5  C4    D T2019       5.809   6.784   5.987  1.00 64.35     0.167 A 
HETATM    6  N3    D T2019       6.468   5.713   6.478  1.00 65.15    -0.205 NA
HETATM    7  C2    D T2019       6.094   5.137   7.627  1.00 64.91     0.202 A 
HETATM    8  N1    D T2019       5.067   5.611   8.320  1.00 65.23    -0.205 NA
HETATM    9  C6    D T2019       4.363   6.691   7.887  1.00 65.21     0.163 A 
HETATM   10  NAV   D T2019       3.322   7.163   8.589  1.00 66.46    -0.250 NA
ENDROOT
BRANCH   1  11
HETATM   11  CAY   D T2019       4.825   9.431   3.901  1.00 67.34     0.018 A 
HETATM   12  CAK   D T2019       3.861  10.439   4.046  1.00 69.05     0.001 A 
HETATM   13  CAI   D T2019       3.709  11.401   3.044  1.00 70.54    -0.002 A 
HETATM   14  CAX   D T2019       4.522  11.347   1.908  1.00 71.07     0.011 A 
HETATM   15  CAJ   D T2019       5.492  10.359   1.771  1.00 68.91    -0.002 A 
HETATM   16  CAL   D T2019       5.641   9.405   2.771  1.00 67.71     0.001 A 
BRANCH  14  17
HETATM   17  CAS   D T2019       4.397  12.421   0.830  1.00 74.21     0.277 C 
BRANCH  17  18
HETATM   18  NBG   D T2019       3.774  11.708  -0.338  1.00 81.39     0.146 N 
HETATM   19  CAQ   D T2019       3.844  12.516  -1.584  1.00 83.32     0.286 C 
HETATM   20  CAO   D T2019       2.713  13.573  -1.592  1.00 86.22     0.285 C 
HETATM   21  NBF   D T2019       1.347  12.962  -1.485  1.00 86.50     0.141 N 
HETATM   22  CAP   D T2019       1.177  11.988  -0.358  1.00 84.69     0.285 C 
HETATM   23  CAR   D T2019       2.423  11.114  -0.037  1.00 81.90     0.286 C 
BRANCH  21  24
HETATM   24  CAN   D T2019       0.881  12.432  -2.799  1.00 86.80     0.251 C 
HETATM   25  CAA   D T2019      -0.184  11.325  -2.603  1.00 86.31     0.037 C 
ENDBRANCH  21  24
ENDBRANCH  17  18
ENDBRANCH  14  17
ENDBRANCH   1  11
BRANCH  10  26
HETATM   26  CBE   D T2019       2.658   6.296   9.570  1.00 69.45     0.127 C 
HETATM   27  CAB   D T2019       3.606   5.229  10.140  1.00 70.81     0.031 C 
BRANCH  26  28
HETATM   28  CAZ   D T2019       1.435   5.669   8.889  1.00 71.15    -0.000 A 
HETATM   29  CAG   D T2019       0.873   6.303   7.754  1.00 70.34    -0.002 A 
HETATM   30  CAD   D T2019      -0.254   5.776   7.114  1.00 69.22    -0.000 A 
HETATM   31  CAC   D T2019      -0.803   4.595   7.632  1.00 70.75    -0.000 A 
HETATM   32  CAE   D T2019      -0.245   3.957   8.759  1.00 71.52    -0.000 A 
HETATM   33  CAH   D T2019       0.871   4.491   9.408  1.00 71.18    -0.002 A 
ENDBRANCH  26  28
ENDBRANCH  10  26
TORSDOF 6
ENDMDL
MODEL 4
REMARK VINA RESULT:      -7.5      3.092      6.002
REMARK  6 active torsions:
REMARK  status: ('A' for Active; 'I' for Inactive)
REMARK    1  A    between atoms: NBF_3  and  CAN_4 
REMARK    2  A    between atoms: NBG_8  and  CAS_9 
REMARK    3  A    between atoms: CAS_9  and  CAX_10 
REMARK    4  A    between atoms: CAY_15  and  CBA_16 
REMARK    5  A    between atoms: NAV_25  and  CBE_26 
REMARK    6  A    between atoms: CBE_26  and  CAZ_28 
ROOT
HETATM    1  CBA   D T2019       2.308   6.516   7.954  1.00 67.38     0.083 A 
HETATM    2  NAW   D T2019       1.191   5.936   8.417  1.00 64.38    -0.227 NA
HETATM    3  CAM   D T2019       3.369   5.926   8.509  1.00 64.23     0.025 A 
HETATM    4  C5    D T2019       2.932   4.953   9.301  1.00 64.03     0.073 A 
HETATM    5  C4    D T2019       1.548   4.956   9.242  1.00 64.35     0.167 A 
HETATM    6  N3    D T2019       0.849   4.063   9.974  1.00 65.15    -0.205 NA
HETATM    7  C2    D T2019       1.470   3.177  10.763  1.00 64.91     0.202 A 
HETATM    8  N1    D T2019       2.794   3.148  10.838  1.00 65.23    -0.205 NA
HETATM    9  C6    D T2019       3.560   4.015  10.122  1.00 65.21     0.163 A 
HETATM   10  NAV   D T2019       4.899   3.985  10.205  1.00 66.46    -0.250 NA
ENDROOT
BRANCH   1  11
HETATM   11  CAY   D T2019       2.347   7.601   7.075  1.00 67.34     0.018 A 
HETATM   12  CAK   D T2019       3.473   8.433   7.013  1.00 69.05     0.001 A 
HETATM   13  CAI   D T2019       3.499   9.497   6.107  1.00 70.54    -0.002 A 
HETATM   14  CAX   D T2019       2.400   9.717   5.272  1.00 71.07     0.011 A 
HETATM   15  CAJ   D T2019       1.290   8.880   5.317  1.00 68.91    -0.002 A 
HETATM   16  CAL   D T2019       1.269   7.822   6.219  1.00 67.71     0.001 A 
BRANCH  14  17
HETATM   17  CAS   D T2019       2.438  10.847   4.246  1.00 74.21     0.277 C 
BRANCH  17  18
HETATM   18  NBG   D T2019       3.512  10.437   3.278  1.00 81.39     0.146 N 
HETATM   19  CAQ   D T2019       4.624  11.423   3.231  1.00 83.32     0.286 C 
HETATM   20  CAO   D T2019       4.232  12.619   2.330  1.00 86.22     0.285 C 
HETATM   21  NBF   D T2019       3.892  12.202   0.929  1.00 86.50     0.141 N 
HETATM   22  CAP   D T2019       2.894  11.089   0.825  1.00 84.69     0.285 C 
HETATM   23  CAR   D T2019       2.987  10.003   1.935  1.00 81.90     0.286 C 
BRANCH  21  24
HETATM   24  CAN   D T2019       5.120  11.972   0.114  1.00 86.80     0.251 C 
HETATM   25  CAA   D T2019       5.931  13.281  -0.047  1.00 86.31     0.037 C 
ENDBRANCH  21  24
ENDBRANCH  17  18
ENDBRANCH  14  17
ENDBRANCH   1  11
BRANCH  10  26
HETATM   26  CBE   D T2019       5.537   3.345  11.362  1.00 69.45     0.127 C 
HETATM   27  CAB   D T2019       5.094   3.973  12.692  1.00 70.81     0.031 C 
BRANCH  26  28
HETATM   28  CAZ   D T2019       7.056   3.432  11.166  1.00 71.15    -0.000 A 
HETATM   29  CAG   D T2019       7.902   2.584  11.921  1.00 70.34    -0.002 A 
HETATM   30  CAD   D T2019       9.294   2.643  11.787  1.00 69.22    -0.000 A 
HETATM   31  CAC   D T2019       9.820   3.568  10.876  1.00 70.75    -0.000 A 
HETATM   32  CAE   D T2019       8.982   4.412  10.118  1.00 71.52    -0.000 A 
HETATM   33  CAH   D T2019       7.593   4.365  10.262  1.00 71.18    -0.002 A 
ENDBRANCH  26  28
ENDBRANCH  10  26
TORSDOF 6
ENDMDL
MODEL 5
REMARK VINA RESULT:      -7.5      1.473      2.383
REMARK  6 active torsions:
REMARK  status: ('A' for Active; 'I' for Inactive)
REMARK    1  A    between atoms: NBF_3  and  CAN_4 
REMARK    2  A    between atoms: NBG_8  and  CAS_9 
REMARK    3  A    between atoms: CAS_9  and  CAX_10 
REMARK    4  A    between atoms: CAY_15  and  CBA_16 
REMARK    5  A    between atoms: NAV_25  and  CBE_26 
REMARK    6  A    between atoms: CBE_26  and  CAZ_28 
ROOT
HETATM    1  CBA   D T2019       6.865   8.196   5.424  1.00 67.38     0.083 A 
HETATM    2  NAW   D T2019       8.116   8.160   5.906  1.00 64.38    -0.227 NA
HETATM    3  CAM   D T2019       6.063   7.504   6.237  1.00 64.23     0.025 A 
HETATM    4  C5    D T2019       6.794   7.053   7.251  1.00 64.03     0.073 A 
HETATM    5  C4    D T2019       8.099   7.472   7.044  1.00 64.35     0.167 A 
HETATM    6  N3    D T2019       9.055   7.131   7.934  1.00 65.15    -0.205 NA
HETATM    7  C2    D T2019       8.767   6.390   9.011  1.00 64.91     0.202 A 
HETATM    8  N1    D T2019       7.526   5.977   9.237  1.00 65.23    -0.205 NA
HETATM    9  C6    D T2019       6.513   6.290   8.385  1.00 65.21     0.163 A 
HETATM   10  NAV   D T2019       5.261   5.865   8.615  1.00 66.46    -0.250 NA
ENDROOT
BRANCH   1  11
HETATM   11  CAY   D T2019       6.480   8.812   4.232  1.00 67.34     0.018 A 
HETATM   12  CAK   D T2019       7.195   9.908   3.728  1.00 69.05     0.001 A 
HETATM   13  CAI   D T2019       6.806  10.492   2.519  1.00 70.54    -0.002 A 
HETATM   14  CAX   D T2019       5.708   9.975   1.827  1.00 71.07     0.011 A 
HETATM   15  CAJ   D T2019       5.009   8.875   2.314  1.00 68.91    -0.002 A 
HETATM   16  CAL   D T2019       5.401   8.296   3.516  1.00 67.71     0.001 A 
BRANCH  14  17
HETATM   17  CAS   D T2019       5.304  10.575   0.482  1.00 74.21     0.277 C 
BRANCH  17  18
HETATM   18  NBG   D T2019       4.209  11.547   0.820  1.00 81.39     0.146 N 
HETATM   19  CAQ   D T2019       2.883  10.882   0.909  1.00 83.32     0.286 C 
HETATM   20  CAO   D T2019       2.298  10.675  -0.509  1.00 86.22     0.285 C 
HETATM   21  NBF   D T2019       2.146  11.962  -1.266  1.00 86.50     0.141 N 
HETATM   22  CAP   D T2019       3.371  12.824  -1.300  1.00 84.69     0.285 C 
HETATM   23  CAR   D T2019       4.236  12.806  -0.007  1.00 81.90     0.286 C 
BRANCH  21  24
HETATM   24  CAN   D T2019       0.917  12.698  -0.851  1.00 86.80     0.251 C 
HETATM   25  CAA   D T2019      -0.214  12.519  -1.894  1.00 86.31     0.037 C 
ENDBRANCH  21  24
ENDBRANCH  17  18
ENDBRANCH  14  17
ENDBRANCH   1  11
BRANCH  10  26
HETATM   26  CBE   D T2019       5.038   4.724   9.511  1.00 69.45     0.127 C 
HETATM   27  CAB   D T2019       5.690   3.436   8.987  1.00 70.81     0.031 C 
BRANCH  26  28
HETATM   28  CAZ   D T2019       3.524   4.564   9.697  1.00 71.15    -0.000 A 
HETATM   29  CAG   D T2019       3.029   3.461  10.434  1.00 70.34    -0.002 A 
HETATM   30  CAD   D T2019       1.654   3.267  10.611  1.00 69.22    -0.000 A 
HETATM   31  CAC   D T2019       0.786   4.205  10.038  1.00 70.75    -0.000 A 
HETATM   32  CAE   D T2019       1.273   5.308   9.308  1.00 71.52    -0.000 A 
HETATM   33  CAH   D T2019       2.645   5.495   9.117  1.00 71.18    -0.002 A 
ENDBRANCH  26  28
ENDBRANCH  10  26
TORSDOF 6
ENDMDL
MODEL 6
REMARK VINA RESULT:      -7.4      5.808      8.749
REMARK  6 active torsions:
REMARK  status: ('A' for Active; 'I' for Inactive)
REMARK    1  A    between atoms: NBF_3  and  CAN_4 
REMARK    2  A    between atoms: NBG_8  and  CAS_9 
REMARK    3  A    between atoms: CAS_9  and  CAX_10 
REMARK    4  A    between atoms: CAY_15  and  CBA_16 
REMARK    5  A    between atoms: NAV_25  and  CBE_26 
REMARK    6  A    between atoms: CBE_26  and  CAZ_28 
ROOT
HETATM    1  CBA   D T2019       5.270   5.404   8.944  1.00 67.38     0.083 A 
HETATM    2  NAW   D T2019       5.123   4.403   9.825  1.00 64.38    -0.227 NA
HETATM    3  CAM   D T2019       4.065   5.822   8.553  1.00 64.23     0.025 A 
HETATM    4  C5    D T2019       3.150   5.112   9.205  1.00 64.03     0.073 A 
HETATM    5  C4    D T2019       3.821   4.211  10.016  1.00 64.35     0.167 A 
HETATM    6  N3    D T2019       3.115   3.352  10.782  1.00 65.15    -0.205 NA
HETATM    7  C2    D T2019       1.777   3.351  10.767  1.00 64.91     0.202 A 
HETATM    8  N1    D T2019       1.106   4.204  10.004  1.00 65.23    -0.205 NA
HETATM    9  C6    D T2019       1.755   5.100   9.212  1.00 65.21     0.163 A 
HETATM   10  NAV   D T2019       1.072   5.958   8.437  1.00 66.46    -0.250 NA
ENDROOT
BRANCH   1  11
HETATM   11  CAY   D T2019       6.492   5.888   8.472  1.00 67.34     0.018 A 
HETATM   12  CAK   D T2019       7.518   5.005   8.105  1.00 69.05     0.001 A 
HETATM   13  CAI   D T2019       8.724   5.512   7.611  1.00 70.54    -0.002 A 
HETATM   14  CAX   D T2019       8.890   6.895   7.490  1.00 71.07     0.011 A 
HETATM   15  CAJ   D T2019       7.867   7.771   7.834  1.00 68.91    -0.002 A 
HETATM   16  CAL   D T2019       6.669   7.262   8.324  1.00 67.71     0.001 A 
BRANCH  14  17
HETATM   17  CAS   D T2019      10.185   7.456   6.906  1.00 74.21     0.277 C 
BRANCH  17  18
HETATM   18  NBG   D T2019       9.777   8.759   6.277  1.00 81.39     0.146 N 
HETATM   19  CAQ   D T2019       9.501   8.613   4.823  1.00 83.32     0.286 C 
HETATM   20  CAO   D T2019      10.830   8.615   4.030  1.00 86.22     0.285 C 
HETATM   21  NBF   D T2019      11.632   9.864   4.249  1.00 86.50     0.141 N 
HETATM   22  CAP   D T2019      11.852  10.231   5.685  1.00 84.69     0.285 C 
HETATM   23  CAR   D T2019      10.668   9.917   6.643  1.00 81.90     0.286 C 
BRANCH  21  24
HETATM   24  CAN   D T2019      11.120  10.995   3.422  1.00 86.80     0.251 C 
HETATM   25  CAA   D T2019      10.890  10.549   1.957  1.00 86.31     0.037 C 
ENDBRANCH  21  24
ENDBRANCH  17  18
ENDBRANCH  14  17
ENDBRANCH   1  11
BRANCH  10  26
HETATM   26  CBE   D T2019      -0.325   5.666   8.093  1.00 69.45     0.127 C 
HETATM   27  CAB   D T2019      -0.581   4.160   7.927  1.00 70.81     0.031 C 
BRANCH  26  28
HETATM   28  CAZ   D T2019      -0.666   6.448   6.819  1.00 71.15    -0.000 A 
HETATM   29  CAG   D T2019      -1.580   5.895   5.889  1.00 70.34    -0.002 A 
HETATM   30  CAD   D T2019      -1.905   6.566   4.705  1.00 69.22    -0.000 A 
HETATM   31  CAC   D T2019      -1.297   7.807   4.474  1.00 70.75    -0.000 A 
HETATM   32  CAE   D T2019      -0.390   8.365   5.398  1.00 71.52    -0.000 A 
HETATM   33  CAH   D T2019      -0.053   7.689   6.573  1.00 71.18    -0.002 A 
ENDBRANCH  26  28
ENDBRANCH  10  26
TORSDOF 6
ENDMDL
MODEL 7
REMARK VINA RESULT:      -7.3      2.105     10.644
REMARK  6 active torsions:
REMARK  status: ('A' for Active; 'I' for Inactive)
REMARK    1  A    between atoms: NBF_3  and  CAN_4 
REMARK    2  A    between atoms: NBG_8  and  CAS_9 
REMARK    3  A    between atoms: CAS_9  and  CAX_10 
REMARK    4  A    between atoms: CAY_15  and  CBA_16 
REMARK    5  A    between atoms: NAV_25  and  CBE_26 
REMARK    6  A    between atoms: CBE_26  and  CAZ_28 
ROOT
HETATM    1  CBA   D T2019       6.997   9.487   3.338  1.00 67.38     0.083 A 
HETATM    2  NAW   D T2019       8.240   9.614   2.849  1.00 64.38    -0.227 NA
HETATM    3  CAM   D T2019       6.142  10.112   2.525  1.00 64.23     0.025 A 
HETATM    4  C5    D T2019       6.833  10.610   1.505  1.00 64.03     0.073 A 
HETATM    5  C4    D T2019       8.166  10.292   1.708  1.00 64.35     0.167 A 
HETATM    6  N3    D T2019       9.090  10.698   0.811  1.00 65.15    -0.205 NA
HETATM    7  C2    D T2019       8.742  11.409  -0.268  1.00 64.91     0.202 A 
HETATM    8  N1    D T2019       7.474  11.726  -0.491  1.00 65.23    -0.205 NA
HETATM    9  C6    D T2019       6.491  11.344   0.368  1.00 65.21     0.163 A 
HETATM   10  NAV   D T2019       5.209  11.671   0.141  1.00 66.46    -0.250 NA
ENDROOT
BRANCH   1  11
HETATM   11  CAY   D T2019       6.664   8.851   4.536  1.00 67.34     0.018 A 
HETATM   12  CAK   D T2019       6.550   7.455   4.599  1.00 69.05     0.001 A 
HETATM   13  CAI   D T2019       6.241   6.840   5.815  1.00 70.54    -0.002 A 
HETATM   14  CAX   D T2019       6.051   7.625   6.955  1.00 71.07     0.011 A 
HETATM   15  CAJ   D T2019       6.184   9.009   6.900  1.00 68.91    -0.002 A 
HETATM   16  CAL   D T2019       6.492   9.617   5.688  1.00 67.71     0.001 A 
BRANCH  14  17
HETATM   17  CAS   D T2019       5.761   6.959   8.298  1.00 74.21     0.277 C 
BRANCH  17  18
HETATM   18  NBG   D T2019       4.674   5.966   7.996  1.00 81.39     0.146 N 
HETATM   19  CAQ   D T2019       3.325   6.593   8.022  1.00 83.32     0.286 C 
HETATM   20  CAO   D T2019       2.833   6.727   9.483  1.00 86.22     0.285 C 
HETATM   21  NBF   D T2019       2.770   5.409  10.196  1.00 86.50     0.141 N 
HETATM   22  CAP   D T2019       4.019   4.585  10.115  1.00 84.69     0.285 C 
HETATM   23  CAR   D T2019       4.793   4.679   8.768  1.00 81.90     0.286 C 
BRANCH  21  24
HETATM   24  CAN   D T2019       1.537   4.651   9.836  1.00 86.80     0.251 C 
HETATM   25  CAA   D T2019       1.487   3.292  10.576  1.00 86.31     0.037 C 
ENDBRANCH  21  24
ENDBRANCH  17  18
ENDBRANCH  14  17
ENDBRANCH   1  11
BRANCH  10  26
HETATM   26  CBE   D T2019       4.897  12.787  -0.761  1.00 69.45     0.127 C 
HETATM   27  CAB   D T2019       5.039  14.152  -0.069  1.00 70.81     0.031 C 
BRANCH  26  28
HETATM   28  CAZ   D T2019       3.480  12.566  -1.305  1.00 71.15    -0.000 A 
HETATM   29  CAG   D T2019       3.106  13.172  -2.529  1.00 70.34    -0.002 A 
HETATM   30  CAD   D T2019       1.818  13.012  -3.053  1.00 69.22    -0.000 A 
HETATM   31  CAC   D T2019       0.914  12.228  -2.325  1.00 70.75    -0.000 A 
HETATM   32  CAE   D T2019       1.282  11.619  -1.108  1.00 71.52    -0.000 A 
HETATM   33  CAH   D T2019       2.563  11.790  -0.576  1.00 71.18    -0.002 A 
ENDBRANCH  26  28
ENDBRANCH  10  26
TORSDOF 6
ENDMDL
MODEL 8
REMARK VINA RESULT:      -7.3      2.103     10.317
REMARK  6 active torsions:
REMARK  status: ('A' for Active; 'I' for Inactive)
REMARK    1  A    between atoms: NBF_3  and  CAN_4 
REMARK    2  A    between atoms: NBG_8  and  CAS_9 
REMARK    3  A    between atoms: CAS_9  and  CAX_10 
REMARK    4  A    between atoms: CAY_15  and  CBA_16 
REMARK    5  A    between atoms: NAV_25  and  CBE_26 
REMARK    6  A    between atoms: CBE_26  and  CAZ_28 
ROOT
HETATM    1  CBA   D T2019       6.007   9.360   3.598  1.00 67.38     0.083 A 
HETATM    2  NAW   D T2019       7.301   9.448   3.259  1.00 64.38    -0.227 NA
HETATM    3  CAM   D T2019       5.268   9.961   2.663  1.00 64.23     0.025 A 
HETATM    4  C5    D T2019       6.085  10.405   1.714  1.00 64.03     0.073 A 
HETATM    5  C4    D T2019       7.378  10.077   2.090  1.00 64.35     0.167 A 
HETATM    6  N3    D T2019       8.411  10.431   1.295  1.00 65.15    -0.205 NA
HETATM    7  C2    D T2019       8.208  11.099   0.153  1.00 64.91     0.202 A 
HETATM    8  N1    D T2019       6.982  11.424  -0.235  1.00 65.23    -0.205 NA
HETATM    9  C6    D T2019       5.896  11.093   0.515  1.00 65.21     0.163 A 
HETATM   10  NAV   D T2019       4.657  11.428   0.121  1.00 66.46    -0.250 NA
ENDROOT
BRANCH   1  11
HETATM   11  CAY   D T2019       5.521   8.782   4.773  1.00 67.34     0.018 A 
HETATM   12  CAK   D T2019       6.056   7.578   5.254  1.00 69.05     0.001 A 
HETATM   13  CAI   D T2019       5.571   7.032   6.445  1.00 70.54    -0.002 A 
HETATM   14  CAX   D T2019       4.557   7.694   7.143  1.00 71.07     0.011 A 
HETATM   15  CAJ   D T2019       4.038   8.898   6.679  1.00 68.91    -0.002 A 
HETATM   16  CAL   D T2019       4.525   9.438   5.494  1.00 67.71     0.001 A 
BRANCH  14  17
HETATM   17  CAS   D T2019       4.054   7.130   8.470  1.00 74.21     0.277 C 
BRANCH  17  18
HETATM   18  NBG   D T2019       3.444   5.805   8.106  1.00 81.39     0.146 N 
HETATM   19  CAQ   D T2019       2.195   5.966   7.317  1.00 83.32     0.286 C 
HETATM   20  CAO   D T2019       1.009   6.283   8.261  1.00 86.22     0.285 C 
HETATM   21  NBF   D T2019       0.795   5.219   9.298  1.00 86.50     0.141 N 
HETATM   22  CAP   D T2019       2.021   4.832  10.069  1.00 84.69     0.285 C 
HETATM   23  CAR   D T2019       3.349   4.841   9.260  1.00 81.90     0.286 C 
BRANCH  21  24
HETATM   24  CAN   D T2019       0.056   4.051   8.738  1.00 86.80     0.251 C 
HETATM   25  CAA   D T2019      -1.284   4.497   8.104  1.00 86.31     0.037 C 
ENDBRANCH  21  24
ENDBRANCH  17  18
ENDBRANCH  14  17
ENDBRANCH   1  11
BRANCH  10  26
HETATM   26  CBE   D T2019       4.477  12.507  -0.857  1.00 69.45     0.127 C 
HETATM   27  CAB   D T2019       4.709  13.896  -0.242  1.00 70.81     0.031 C 
BRANCH  26  28
HETATM   28  CAZ   D T2019       3.068  12.372  -1.449  1.00 71.15    -0.000 A 
HETATM   29  CAG   D T2019       2.650  13.275  -2.456  1.00 70.34    -0.002 A 
HETATM   30  CAD   D T2019       1.367  13.199  -3.010  1.00 69.22    -0.000 A 
HETATM   31  CAC   D T2019       0.513  12.195  -2.535  1.00 70.75    -0.000 A 
HETATM   32  CAE   D T2019       0.925  11.290  -1.536  1.00 71.52    -0.000 A 
HETATM   33  CAH   D T2019       2.201  11.374  -0.971  1.00 71.18    -0.002 A 
ENDBRANCH  26  28
ENDBRANCH  10  26
TORSDOF 6
ENDMDL
MODEL 9
REMARK VINA RESULT:      -7.2      4.489     10.774
REMARK  6 active torsions:
REMARK  status: ('A' for Active; 'I' for Inactive)
REMARK    1  A    between atoms: NBF_3  and  CAN_4 
REMARK    2  A    between atoms: NBG_8  and  CAS_9 
REMARK    3  A    between atoms: CAS_9  and  CAX_10 
REMARK    4  A    between atoms: CAY_15  and  CBA_16 
REMARK    5  A    between atoms: NAV_25  and  CBE_26 
REMARK    6  A    between atoms: CBE_26  and  CAZ_28 
ROOT
HETATM    1  CBA   D T2019       6.815   9.588   6.689  1.00 67.38     0.083 A 
HETATM    2  NAW   D T2019       7.201   9.597   5.405  1.00 64.38    -0.227 NA
HETATM    3  CAM   D T2019       5.496   9.398   6.748  1.00 64.23     0.025 A 
HETATM    4  C5    D T2019       5.044   9.256   5.507  1.00 64.03     0.073 A 
HETATM    5  C4    D T2019       6.127   9.379   4.651  1.00 64.35     0.167 A 
HETATM    6  N3    D T2019       5.934   9.286   3.318  1.00 65.15    -0.205 NA
HETATM    7  C2    D T2019       4.714   9.083   2.807  1.00 64.91     0.202 A 
HETATM    8  N1    D T2019       3.659   8.958   3.601  1.00 65.23    -0.205 NA
HETATM    9  C6    D T2019       3.782   9.035   4.953  1.00 65.21     0.163 A 
HETATM   10  NAV   D T2019       2.710   8.913   5.752  1.00 66.46    -0.250 NA
ENDROOT
BRANCH   1  11
HETATM   11  CAY   D T2019       7.657   9.801   7.783  1.00 67.34     0.018 A 
HETATM   12  CAK   D T2019       8.322  11.024   7.948  1.00 69.05     0.001 A 
HETATM   13  CAI   D T2019       9.139  11.223   9.064  1.00 70.54    -0.002 A 
HETATM   14  CAX   D T2019       9.282  10.199  10.004  1.00 71.07     0.011 A 
HETATM   15  CAJ   D T2019       8.607   8.992   9.853  1.00 68.91    -0.002 A 
HETATM   16  CAL   D T2019       7.795   8.799   8.742  1.00 67.71     0.001 A 
BRANCH  14  17
HETATM   17  CAS   D T2019      10.134  10.424  11.251  1.00 74.21     0.277 C 
BRANCH  17  18
HETATM   18  NBG   D T2019       9.228  10.056  12.393  1.00 81.39     0.146 N 
HETATM   19  CAQ   D T2019       8.443  11.223  12.878  1.00 83.32     0.286 C 
HETATM   20  CAO   D T2019       9.314  12.094  13.814  1.00 86.22     0.285 C 
HETATM   21  NBF   D T2019       9.833  11.332  14.998  1.00 86.50     0.141 N 
HETATM   22  CAP   D T2019      10.511  10.037  14.669  1.00 84.69     0.285 C 
HETATM   23  CAR   D T2019       9.904   9.251  13.472  1.00 81.90     0.286 C 
BRANCH  21  24
HETATM   24  CAN   D T2019       8.795  11.202  16.061  1.00 86.80     0.251 C 
HETATM   25  CAA   D T2019       9.184  10.105  17.082  1.00 86.31     0.037 C 
ENDBRANCH  21  24
ENDBRANCH  17  18
ENDBRANCH  14  17
ENDBRANCH   1  11
BRANCH  10  26
HETATM   26  CBE   D T2019       1.368   9.135   5.200  1.00 69.45     0.127 C 
HETATM   27  CAB   D T2019       0.760  10.467   5.665  1.00 70.81     0.031 C 
BRANCH  26  28
HETATM   28  CAZ   D T2019       0.495   7.938   5.597  1.00 71.15    -0.000 A 
HETATM   29  CAG   D T2019      -0.690   7.672   4.869  1.00 70.34    -0.002 A 
HETATM   30  CAD   D T2019      -1.525   6.602   5.209  1.00 69.22    -0.000 A 
HETATM   31  CAC   D T2019      -1.144   5.800   6.293  1.00 70.75    -0.000 A 
HETATM   32  CAE   D T2019       0.036   6.058   7.020  1.00 71.52    -0.000 A 
HETATM   33  CAH   D T2019       0.863   7.135   6.691  1.00 71.18    -0.002 A 
ENDBRANCH  26  28
ENDBRANCH  10  26
TORSDOF 6
ENDMDL
