MODEL 1
REMARK VINA RESULT:    -8.123      0.000      0.000
REMARK INTER + INTRA:          -9.402
REMARK INTER:                  -9.073
REMARK INTRA:                  -0.329
REMARK UNBOUND:                -0.329
REMARK  2 active torsions:
REMARK  status: ('A' for Active; 'I' for Inactive)
REMARK    1  A    between atoms: C5_4  and  O7_13 
REMARK    2  A    between atoms: C8_10  and  O7_13 
ROOT
HETATM    1  O7    D T 705      -6.164  -1.401  10.064  1.00 22.05    -0.304 OA
ENDROOT
BRANCH   1   2
HETATM    2  C5    D T 705      -5.315  -2.444  10.224  1.00 22.37     0.125 A 
HETATM    3  C6    D T 705      -5.712  -3.717   9.598  1.00 22.42     0.154 A 
HETATM    4  C1    D T 705      -4.865  -4.810   9.748  1.00 22.18     0.041 A 
HETATM    5  O17   D T 705      -6.861  -3.760   8.919  1.00 21.45    -0.188 OA
HETATM    6  C2    D T 705      -3.691  -4.683  10.471  1.00 22.53     0.060 A 
HETATM    7  C3    D T 705      -3.320  -3.472  11.067  1.00 22.56     0.014 A 
HETATM    8 CL14   D T 705      -2.632  -6.109  10.632  1.00 21.73    -0.082 Cl
HETATM    9  C4    D T 705      -4.135  -2.350  10.945  1.00 22.81     0.028 A 
ENDBRANCH   1   2
BRANCH   1  10
HETATM   10  C8    D T 705      -5.694  -0.226   9.583  1.00 21.94     0.111 A 
HETATM   11  C9    D T 705      -5.365   0.811  10.567  1.00 22.85     0.081 A 
HETATM   12  C10   D T 705      -4.880   2.037  10.142  1.00 22.60     0.025 A 
HETATM   13 CL16   D T 705      -5.607   0.432  12.288  1.00 21.30    -0.080 Cl
HETATM   14  C11   D T 705      -4.728   2.246   8.786  1.00 22.34     0.059 A 
HETATM   15  C12   D T 705      -5.033   1.264   7.843  1.00 22.46     0.013 A 
HETATM   16 CL15   D T 705      -4.122   3.811   8.219  1.00 24.32    -0.082 Cl
HETATM   17  C13   D T 705      -5.522   0.028   8.231  1.00 21.87     0.026 A 
ENDBRANCH   1  10
TORSDOF 2
ENDMDL
MODEL 2
REMARK VINA RESULT:    -7.943      1.750      6.063
REMARK INTER + INTRA:          -9.201
REMARK INTER:                  -8.698
REMARK INTRA:                  -0.503
REMARK UNBOUND:                -0.329
REMARK  2 active torsions:
REMARK  status: ('A' for Active; 'I' for Inactive)
REMARK    1  A    between atoms: C5_4  and  O7_13 
REMARK    2  A    between atoms: C8_10  and  O7_13 
ROOT
HETATM    1  O7    D T 705      -5.435  -1.653  10.808  1.00 22.05    -0.304 OA
ENDROOT
BRANCH   1   2
HETATM    2  C5    D T 705      -5.358  -0.547  10.029  1.00 22.37     0.125 A 
HETATM    3  C6    D T 705      -5.131   0.732  10.722  1.00 22.42     0.154 A 
HETATM    4  C1    D T 705      -5.054   1.887   9.952  1.00 22.18     0.041 A 
HETATM    5  O17   D T 705      -5.011   0.721  12.052  1.00 21.45    -0.188 OA
HETATM    6  C2    D T 705      -5.191   1.814   8.576  1.00 22.53     0.060 A 
HETATM    7  C3    D T 705      -5.411   0.596   7.922  1.00 22.56     0.014 A 
HETATM    8 CL14   D T 705      -5.078   3.319   7.627  1.00 21.73    -0.082 Cl
HETATM    9  C4    D T 705      -5.496  -0.587   8.651  1.00 22.81     0.028 A 
ENDBRANCH   1   2
BRANCH   1  10
HETATM   10  C8    D T 705      -4.397  -2.522  10.837  1.00 21.94     0.111 A 
HETATM   11  C9    D T 705      -4.669  -3.895  10.395  1.00 22.85     0.081 A 
HETATM   12  C10   D T 705      -3.651  -4.834  10.400  1.00 22.60     0.025 A 
HETATM   13 CL16   D T 705      -6.319  -4.286   9.862  1.00 21.30    -0.080 Cl
HETATM   14  C11   D T 705      -2.401  -4.444  10.834  1.00 22.34     0.059 A 
HETATM   15  C12   D T 705      -2.132  -3.140  11.251  1.00 22.46     0.013 A 
HETATM   16 CL15   D T 705      -1.088  -5.633  10.861  1.00 24.32    -0.082 Cl
HETATM   17  C13   D T 705      -3.125  -2.174  11.262  1.00 21.87     0.026 A 
ENDBRANCH   1  10
TORSDOF 2
ENDMDL
MODEL 3
REMARK VINA RESULT:    -7.932      1.800      2.293
REMARK INTER + INTRA:          -9.188
REMARK INTER:                  -8.898
REMARK INTRA:                  -0.291
REMARK UNBOUND:                -0.329
REMARK  2 active torsions:
REMARK  status: ('A' for Active; 'I' for Inactive)
REMARK    1  A    between atoms: C5_4  and  O7_13 
REMARK    2  A    between atoms: C8_10  and  O7_13 
ROOT
HETATM    1  O7    D T 705      -5.100  -1.989  11.184  1.00 22.05    -0.304 OA
ENDROOT
BRANCH   1   2
HETATM    2  C5    D T 705      -4.000  -2.778  11.129  1.00 22.37     0.125 A 
HETATM    3  C6    D T 705      -4.235  -4.225  10.990  1.00 22.42     0.154 A 
HETATM    4  C1    D T 705      -3.127  -5.063  10.936  1.00 22.18     0.041 A 
HETATM    5  O17   D T 705      -5.496  -4.661  10.924  1.00 21.45    -0.188 OA
HETATM    6  C2    D T 705      -1.851  -4.533  11.014  1.00 22.53     0.060 A 
HETATM    7  C3    D T 705      -1.633  -3.157  11.149  1.00 22.56     0.014 A 
HETATM    8 CL14   D T 705      -0.459  -5.645  10.934  1.00 21.73    -0.082 Cl
HETATM    9  C4    D T 705      -2.711  -2.277  11.208  1.00 22.81     0.028 A 
ENDBRANCH   1   2
BRANCH   1  10
HETATM   10  C8    D T 705      -5.112  -0.813  10.515  1.00 21.94     0.111 A 
HETATM   11  C9    D T 705      -5.473  -0.862   9.093  1.00 22.85     0.081 A 
HETATM   12  C10   D T 705      -5.505   0.305   8.349  1.00 22.60     0.025 A 
HETATM   13 CL16   D T 705      -5.861  -2.448   8.388  1.00 21.30    -0.080 Cl
HETATM   14  C11   D T 705      -5.185   1.492   8.977  1.00 22.34     0.059 A 
HETATM   15  C12   D T 705      -4.846   1.549  10.329  1.00 22.46     0.013 A 
HETATM   16 CL15   D T 705      -5.206   2.996   8.040  1.00 24.32    -0.082 Cl
HETATM   17  C13   D T 705      -4.801   0.402  11.104  1.00 21.87     0.026 A 
ENDBRANCH   1  10
TORSDOF 2
ENDMDL
MODEL 4
REMARK VINA RESULT:    -7.477      2.095      2.683
REMARK INTER + INTRA:          -8.680
REMARK INTER:                  -8.429
REMARK INTRA:                  -0.251
REMARK UNBOUND:                -0.329
REMARK  2 active torsions:
REMARK  status: ('A' for Active; 'I' for Inactive)
REMARK    1  A    between atoms: C5_4  and  O7_13 
REMARK    2  A    between atoms: C8_10  and  O7_13 
ROOT
HETATM    1  O7    D T 705      -4.301  -1.989  11.492  1.00 22.05    -0.304 OA
ENDROOT
BRANCH   1   2
HETATM    2  C5    D T 705      -4.045  -3.257  11.091  1.00 22.37     0.125 A 
HETATM    3  C6    D T 705      -2.880  -3.918  11.702  1.00 22.42     0.154 A 
HETATM    4  C1    D T 705      -2.587  -5.219  11.307  1.00 22.18     0.041 A 
HETATM    5  O17   D T 705      -2.163  -3.240  12.602  1.00 21.45    -0.188 OA
HETATM    6  C2    D T 705      -3.378  -5.853  10.365  1.00 22.53     0.060 A 
HETATM    7  C3    D T 705      -4.483  -5.218   9.784  1.00 22.56     0.014 A 
HETATM    8 CL14   D T 705      -2.969  -7.523   9.892  1.00 21.73    -0.082 Cl
HETATM    9  C4    D T 705      -4.816  -3.916  10.147  1.00 22.81     0.028 A 
ENDBRANCH   1   2
BRANCH   1  10
HETATM   10  C8    D T 705      -4.609  -1.046  10.572  1.00 21.94     0.111 A 
HETATM   11  C9    D T 705      -3.507  -0.209  10.083  1.00 22.85     0.081 A 
HETATM   12  C10   D T 705      -3.754   0.775   9.140  1.00 22.60     0.025 A 
HETATM   13 CL16   D T 705      -1.881  -0.510  10.738  1.00 21.30    -0.080 Cl
HETATM   14  C11   D T 705      -5.048   0.941   8.690  1.00 22.34     0.059 A 
HETATM   15  C12   D T 705      -6.101   0.147   9.145  1.00 22.46     0.013 A 
HETATM   16 CL15   D T 705      -5.388   2.203   7.494  1.00 24.32    -0.082 Cl
HETATM   17  C13   D T 705      -5.893  -0.845  10.089  1.00 21.87     0.026 A 
ENDBRANCH   1  10
TORSDOF 2
ENDMDL
MODEL 5
REMARK VINA RESULT:    -7.240      2.093      6.257
REMARK INTER + INTRA:          -8.416
REMARK INTER:                  -8.443
REMARK INTRA:                   0.027
REMARK UNBOUND:                -0.329
REMARK  2 active torsions:
REMARK  status: ('A' for Active; 'I' for Inactive)
REMARK    1  A    between atoms: C5_4  and  O7_13 
REMARK    2  A    between atoms: C8_10  and  O7_13 
ROOT
HETATM    1  O7    D T 705      -3.935  -0.141  11.227  1.00 22.05    -0.304 OA
ENDROOT
BRANCH   1   2
HETATM    2  C5    D T 705      -4.337   0.682  10.230  1.00 22.37     0.125 A 
HETATM    3  C6    D T 705      -3.543   1.905  10.026  1.00 22.42     0.154 A 
HETATM    4  C1    D T 705      -3.933   2.775   9.014  1.00 22.18     0.041 A 
HETATM    5  O17   D T 705      -2.491   2.120  10.821  1.00 21.45    -0.188 OA
HETATM    6  C2    D T 705      -5.038   2.482   8.234  1.00 22.53     0.060 A 
HETATM    7  C3    D T 705      -5.792   1.319   8.434  1.00 22.56     0.014 A 
HETATM    8 CL14   D T 705      -5.498   3.622   6.943  1.00 21.73    -0.082 Cl
HETATM    9  C4    D T 705      -5.441   0.418   9.436  1.00 22.81     0.028 A 
ENDBRANCH   1   2
BRANCH   1  10
HETATM   10  C8    D T 705      -3.884  -1.476  11.012  1.00 21.94     0.111 A 
HETATM   11  C9    D T 705      -2.561  -2.110  11.078  1.00 22.85     0.081 A 
HETATM   12  C10   D T 705      -2.438  -3.473  10.866  1.00 22.60     0.025 A 
HETATM   13 CL16   D T 705      -1.160  -1.075  11.436  1.00 21.30    -0.080 Cl
HETATM   14  C11   D T 705      -3.579  -4.199  10.590  1.00 22.34     0.059 A 
HETATM   15  C12   D T 705      -4.841  -3.606  10.530  1.00 22.46     0.013 A 
HETATM   16 CL15   D T 705      -3.443  -5.942  10.302  1.00 24.32    -0.082 Cl
HETATM   17  C13   D T 705      -5.002  -2.246  10.733  1.00 21.87     0.026 A 
ENDBRANCH   1  10
TORSDOF 2
ENDMDL
MODEL 6
REMARK VINA RESULT:    -7.223      3.486      5.814
REMARK INTER + INTRA:          -8.396
REMARK INTER:                  -8.193
REMARK INTRA:                  -0.203
REMARK UNBOUND:                -0.329
REMARK  2 active torsions:
REMARK  status: ('A' for Active; 'I' for Inactive)
REMARK    1  A    between atoms: C5_4  and  O7_13 
REMARK    2  A    between atoms: C8_10  and  O7_13 
ROOT
HETATM    1  O7    D T 705      -3.818   1.116  10.379  1.00 22.05    -0.304 OA
ENDROOT
BRANCH   1   2
HETATM    2  C5    D T 705      -2.508   1.442  10.490  1.00 22.37     0.125 A 
HETATM    3  C6    D T 705      -1.731   1.478   9.240  1.00 22.42     0.154 A 
HETATM    4  C1    D T 705      -0.382   1.803   9.319  1.00 22.18     0.041 A 
HETATM    5  O17   D T 705      -2.357   1.198   8.094  1.00 21.45    -0.188 OA
HETATM    6  C2    D T 705       0.194   2.079  10.547  1.00 22.53     0.060 A 
HETATM    7  C3    D T 705      -0.548   2.040  11.734  1.00 22.56     0.014 A 
HETATM    8 CL14   D T 705       1.926   2.498  10.602  1.00 21.73    -0.082 Cl
HETATM    9  C4    D T 705      -1.903   1.719  11.705  1.00 22.81     0.028 A 
ENDBRANCH   1   2
BRANCH   1  10
HETATM   10  C8    D T 705      -4.171  -0.176  10.186  1.00 21.94     0.111 A 
HETATM   11  C9    D T 705      -5.213  -0.437   9.185  1.00 22.85     0.081 A 
HETATM   12  C10   D T 705      -5.621  -1.737   8.938  1.00 22.60     0.025 A 
HETATM   13 CL16   D T 705      -5.908   0.955   8.325  1.00 21.30    -0.080 Cl
HETATM   14  C11   D T 705      -5.031  -2.757   9.656  1.00 22.34     0.059 A 
HETATM   15  C12   D T 705      -4.036  -2.519  10.605  1.00 22.46     0.013 A 
HETATM   16 CL15   D T 705      -5.547  -4.427   9.366  1.00 24.32    -0.082 Cl
HETATM   17  C13   D T 705      -3.604  -1.232  10.881  1.00 21.87     0.026 A 
ENDBRANCH   1  10
TORSDOF 2
ENDMDL
MODEL 7
REMARK VINA RESULT:    -7.170      3.971      5.967
REMARK INTER + INTRA:          -8.338
REMARK INTER:                  -7.878
REMARK INTRA:                  -0.459
REMARK UNBOUND:                -0.329
REMARK  2 active torsions:
REMARK  status: ('A' for Active; 'I' for Inactive)
REMARK    1  A    between atoms: C5_4  and  O7_13 
REMARK    2  A    between atoms: C8_10  and  O7_13 
ROOT
HETATM    1  O7    D T 705      -3.117   1.047  10.261  1.00 22.05    -0.304 OA
ENDROOT
BRANCH   1   2
HETATM    2  C5    D T 705      -1.809   1.137   9.920  1.00 22.37     0.125 A 
HETATM    3  C6    D T 705      -0.908   1.739  10.917  1.00 22.42     0.154 A 
HETATM    4  C1    D T 705       0.440   1.851  10.595  1.00 22.18     0.041 A 
HETATM    5  O17   D T 705      -1.427   2.146  12.079  1.00 21.45    -0.188 OA
HETATM    6  C2    D T 705       0.899   1.407   9.368  1.00 22.53     0.060 A 
HETATM    7  C3    D T 705       0.038   0.840   8.421  1.00 22.56     0.014 A 
HETATM    8 CL14   D T 705       2.636   1.565   8.999  1.00 21.73    -0.082 Cl
HETATM    9  C4    D T 705      -1.320   0.706   8.698  1.00 22.81     0.028 A 
ENDBRANCH   1   2
BRANCH   1  10
HETATM   10  C8    D T 705      -3.788  -0.106  10.036  1.00 21.94     0.111 A 
HETATM   11  C9    D T 705      -4.916  -0.046   9.098  1.00 22.85     0.081 A 
HETATM   12  C10   D T 705      -5.645  -1.190   8.823  1.00 22.60     0.025 A 
HETATM   13 CL16   D T 705      -5.291   1.523   8.349  1.00 21.30    -0.080 Cl
HETATM   14  C11   D T 705      -5.286  -2.364   9.453  1.00 22.34     0.059 A 
HETATM   15  C12   D T 705      -4.212  -2.433  10.341  1.00 22.46     0.013 A 
HETATM   16 CL15   D T 705      -6.214  -3.837   9.125  1.00 24.32    -0.082 Cl
HETATM   17  C13   D T 705      -3.461  -1.308  10.643  1.00 21.87     0.026 A 
ENDBRANCH   1  10
TORSDOF 2
ENDMDL
MODEL 8
REMARK VINA RESULT:    -6.957      2.038      2.678
REMARK INTER + INTRA:          -8.099
REMARK INTER:                  -7.790
REMARK INTRA:                  -0.310
REMARK UNBOUND:                -0.329
REMARK  2 active torsions:
REMARK  status: ('A' for Active; 'I' for Inactive)
REMARK    1  A    between atoms: C5_4  and  O7_13 
REMARK    2  A    between atoms: C8_10  and  O7_13 
ROOT
HETATM    1  O7    D T 705      -2.892  -0.485  11.286  1.00 22.05    -0.304 OA
ENDROOT
BRANCH   1   2
HETATM    2  C5    D T 705      -3.096  -1.816  11.145  1.00 22.37     0.125 A 
HETATM    3  C6    D T 705      -2.069  -2.704  11.716  1.00 22.42     0.154 A 
HETATM    4  C1    D T 705      -2.246  -4.077  11.583  1.00 22.18     0.041 A 
HETATM    5  O17   D T 705      -1.021  -2.150  12.332  1.00 21.45    -0.188 OA
HETATM    6  C2    D T 705      -3.360  -4.572  10.928  1.00 22.53     0.060 A 
HETATM    7  C3    D T 705      -4.331  -3.724  10.383  1.00 22.56     0.014 A 
HETATM    8 CL14   D T 705      -3.550  -6.340  10.786  1.00 21.73    -0.082 Cl
HETATM    9  C4    D T 705      -4.198  -2.343  10.491  1.00 22.81     0.028 A 
ENDBRANCH   1   2
BRANCH   1  10
HETATM   10  C8    D T 705      -3.381   0.368  10.357  1.00 21.94     0.111 A 
HETATM   11  C9    D T 705      -4.670   1.005  10.653  1.00 22.85     0.081 A 
HETATM   12  C10   D T 705      -5.228   1.888   9.744  1.00 22.60     0.025 A 
HETATM   13 CL16   D T 705      -5.461   0.603  12.194  1.00 21.30    -0.080 Cl
HETATM   14  C11   D T 705      -4.546   2.138   8.570  1.00 22.34     0.059 A 
HETATM   15  C12   D T 705      -3.318   1.542   8.282  1.00 22.46     0.013 A 
HETATM   16 CL15   D T 705      -5.248   3.254   7.387  1.00 24.32    -0.082 Cl
HETATM   17  C13   D T 705      -2.731   0.651   9.166  1.00 21.87     0.026 A 
ENDBRANCH   1  10
TORSDOF 2
ENDMDL
MODEL 9
REMARK VINA RESULT:    -6.943      4.014      5.885
REMARK INTER + INTRA:          -8.083
REMARK INTER:                  -7.542
REMARK INTRA:                  -0.541
REMARK UNBOUND:                -0.329
REMARK  2 active torsions:
REMARK  status: ('A' for Active; 'I' for Inactive)
REMARK    1  A    between atoms: C5_4  and  O7_13 
REMARK    2  A    between atoms: C8_10  and  O7_13 
ROOT
HETATM    1  O7    D T 705      -2.301  -0.726  11.504  1.00 22.05    -0.304 OA
ENDROOT
BRANCH   1   2
HETATM    2  C5    D T 705      -1.191  -0.328  10.837  1.00 22.37     0.125 A 
HETATM    3  C6    D T 705      -0.950   1.123  10.766  1.00 22.42     0.154 A 
HETATM    4  C1    D T 705       0.178   1.564  10.083  1.00 22.18     0.041 A 
HETATM    5  O17   D T 705      -1.822   1.942  11.360  1.00 21.45    -0.188 OA
HETATM    6  C2    D T 705       1.033   0.650   9.491  1.00 22.53     0.060 A 
HETATM    7  C3    D T 705       0.797  -0.728   9.558  1.00 22.56     0.014 A 
HETATM    8 CL14   D T 705       2.470   1.260   8.631  1.00 21.73    -0.082 Cl
HETATM    9  C4    D T 705      -0.319  -1.218  10.231  1.00 22.81     0.028 A 
ENDBRANCH   1   2
BRANCH   1  10
HETATM   10  C8    D T 705      -3.274  -1.394  10.843  1.00 21.94     0.111 A 
HETATM   11  C9    D T 705      -3.411  -2.826  11.134  1.00 22.85     0.081 A 
HETATM   12  C10   D T 705      -4.387  -3.570  10.492  1.00 22.60     0.025 A 
HETATM   13 CL16   D T 705      -2.298  -3.545  12.320  1.00 21.30    -0.080 Cl
HETATM   14  C11   D T 705      -5.206  -2.931   9.583  1.00 22.34     0.059 A 
HETATM   15  C12   D T 705      -5.086  -1.569   9.304  1.00 22.46     0.013 A 
HETATM   16 CL15   D T 705      -6.452  -3.866   8.740  1.00 24.32    -0.082 Cl
HETATM   17  C13   D T 705      -4.120  -0.794   9.924  1.00 21.87     0.026 A 
ENDBRANCH   1  10
TORSDOF 2
ENDMDL
