MODEL 1
REMARK VINA RESULT:      -8.9      0.000      0.000
REMARK  9 active torsions:
REMARK  status: ('A' for Active; 'I' for Inactive)
REMARK    1  A    between atoms: O02_2  and  CAX_24 
REMARK    2  A    between atoms: CAC_3  and  CAM_13 
REMARK    3  A    between atoms: CAC_3  and  NBH_34 
REMARK    4  A    between atoms: CAM_13  and  CAN_14 
REMARK    5  A    between atoms: CAN_14  and  OAW_23 
REMARK    6  A    between atoms: NAU_21  and  CBB_28 
REMARK    7  A    between atoms: NAU_21  and  CBE_31 
REMARK    8  A    between atoms: OAV_22  and  CBC_29 
REMARK    9  A    between atoms: OAW_23  and  CBD_30 
ROOT
HETATM    1  NAD   D T 401      -5.781   1.437   8.518  1.00 19.83    -0.191 NA
HETATM    2  CAG   D T 401      -5.503   0.373   8.848  1.00 22.89     0.104 C 
HETATM    3  CAH   D T 401      -6.010  -1.851   8.658  1.00 14.94     0.111 A 
HETATM    4  CAK   D T 401      -4.655  -4.907  10.083  1.00 20.70     0.045 A 
HETATM    5  CAL   D T 401      -2.955  -3.062  11.332  1.00 20.29     0.029 A 
HETATM    6  NAT   D T 401      -5.789  -3.142   8.960  1.00 16.88    -0.243 NA
HETATM    7  CBA   D T 401      -5.204  -0.845   9.225  1.00 16.47     0.105 A 
HETATM    8  CBC   D T 401      -2.793  -4.440  11.598  1.00 25.88     0.116 A 
HETATM    9  CBD   D T 401      -3.655  -5.360  10.962  1.00 27.06     0.118 A 
HETATM   10  CBE   D T 401      -4.156  -1.201  10.146  1.00 22.24     0.094 A 
HETATM   11  CBF   D T 401      -4.811  -3.536   9.819  1.00 20.86     0.085 A 
HETATM   12  CBG   D T 401      -3.959  -2.582  10.442  1.00 20.86     0.038 A 
ENDROOT
BRANCH  10  13
HETATM   13  NAU   D T 401      -3.335  -0.260  10.750  1.00 16.88    -0.244 NA
BRANCH  13  14
HETATM   14  CBB   D T 401      -2.087   0.104  10.326  1.00 19.80     0.094 A 
HETATM   15  CAJ   D T 401      -1.019  -0.825  10.334  1.00 18.64     0.045 A 
HETATM   16  CAX   D T 401       0.262  -0.422   9.913  1.00 17.07     0.106 A 
HETATM   17  CAY   D T 401       0.484   0.904   9.491  1.00 24.79     0.081 A 
HETATM   18 CL1    D T 401       2.046   1.360   9.006  1.00 27.04    -0.080 Cl
HETATM   19  CAI   D T 401      -0.566   1.838   9.481  1.00 19.15     0.026 A 
HETATM   20  CAZ   D T 401      -1.848   1.438   9.899  1.00 21.66     0.076 A 
HETATM   21 CL2    D T 401      -3.084   2.600   9.871  1.00 21.61    -0.081 Cl
BRANCH  16  22
HETATM   22  O02   D T 401       1.339  -1.265   9.916  1.00 20.01    -0.327 OA
HETATM   23  C01   D T 401       1.099  -2.609   9.469  1.00 19.16     0.181 C 
ENDBRANCH  16  22
ENDBRANCH  13  14
ENDBRANCH  10  13
BRANCH   8  24
HETATM   24  OAV   D T 401      -1.829  -4.918  12.457  1.00 29.42    -0.326 OA
HETATM   25  CAA   D T 401      -0.466  -4.747  12.027  1.00 25.21     0.181 C 
ENDBRANCH   8  24
BRANCH   9  26
HETATM   26  OAW   D T 401      -3.535  -6.696  11.200  1.00 24.87    -0.329 OA
BRANCH  26  27
HETATM   27  CAN   D T 401      -2.752  -7.477  10.270  1.00 25.33     0.151 C 
BRANCH  27  28
HETATM   28  CAM   D T 401      -1.802  -8.350  11.141  1.00 30.63     0.068 C 
BRANCH  28  29
HETATM   29  CAC   D T 401      -1.982  -8.190  12.670  1.00 41.99     0.253 C 
BRANCH  29  30
HETATM   30  NBH   D T 401      -1.947  -9.489  13.439  1.00 46.77     0.141 N 
HETATM   31  CAP   D T 401      -0.975  -9.523  14.578  1.00 49.95     0.285 C 
HETATM   32  CAR   D T 401      -0.883 -10.949  15.176  1.00 58.84     0.285 C 
HETATM   33  NBI   D T 401      -2.231 -11.446  15.591  1.00 60.13     0.143 N 
HETATM   34  CAO   D T 401      -2.151 -12.764  16.280  1.00 54.26     0.285 C 
HETATM   35  CAS   D T 401      -3.214 -11.428  14.465  1.00 43.59     0.285 C 
HETATM   36  CAQ   D T 401      -3.295 -10.012  13.841  1.00 43.83     0.285 C 
ENDBRANCH  29  30
ENDBRANCH  28  29
ENDBRANCH  27  28
ENDBRANCH  26  27
ENDBRANCH   9  26
TORSDOF 9
ENDMDL
MODEL 2
REMARK VINA RESULT:      -8.9      1.643      2.102
REMARK  9 active torsions:
REMARK  status: ('A' for Active; 'I' for Inactive)
REMARK    1  A    between atoms: O02_2  and  CAX_24 
REMARK    2  A    between atoms: CAC_3  and  CAM_13 
REMARK    3  A    between atoms: CAC_3  and  NBH_34 
REMARK    4  A    between atoms: CAM_13  and  CAN_14 
REMARK    5  A    between atoms: CAN_14  and  OAW_23 
REMARK    6  A    between atoms: NAU_21  and  CBB_28 
REMARK    7  A    between atoms: NAU_21  and  CBE_31 
REMARK    8  A    between atoms: OAV_22  and  CBC_29 
REMARK    9  A    between atoms: OAW_23  and  CBD_30 
ROOT
HETATM    1  NAD   D T 401      -5.767   1.455   8.609  1.00 19.83    -0.191 NA
HETATM    2  CAG   D T 401      -5.489   0.387   8.926  1.00 22.89     0.104 C 
HETATM    3  CAH   D T 401      -6.026  -1.831   8.744  1.00 14.94     0.111 A 
HETATM    4  CAK   D T 401      -4.657  -4.907  10.109  1.00 20.70     0.045 A 
HETATM    5  CAL   D T 401      -2.897  -3.086  11.309  1.00 20.29     0.029 A 
HETATM    6  NAT   D T 401      -5.809  -3.125   9.032  1.00 16.88    -0.243 NA
HETATM    7  CBA   D T 401      -5.191  -0.835   9.287  1.00 16.47     0.105 A 
HETATM    8  CBC   D T 401      -2.741  -4.466  11.563  1.00 25.88     0.116 A 
HETATM    9  CBD   D T 401      -3.634  -5.375  10.952  1.00 27.06     0.118 A 
HETATM   10  CBE   D T 401      -4.116  -1.207  10.170  1.00 22.24     0.094 A 
HETATM   11  CBF   D T 401      -4.807  -3.533   9.856  1.00 20.86     0.085 A 
HETATM   12  CBG   D T 401      -3.924  -2.591  10.454  1.00 20.86     0.038 A 
ENDROOT
BRANCH  10  13
HETATM   13  NAU   D T 401      -3.265  -0.277  10.751  1.00 16.88    -0.244 NA
BRANCH  13  14
HETATM   14  CBB   D T 401      -2.033   0.082  10.281  1.00 19.80     0.094 A 
HETATM   15  CAJ   D T 401      -0.986  -0.866  10.194  1.00 18.64     0.045 A 
HETATM   16  CAX   D T 401       0.282  -0.468   9.728  1.00 17.07     0.106 A 
HETATM   17  CAY   D T 401       0.510   0.871   9.355  1.00 24.79     0.081 A 
HETATM   18 CL1    D T 401       2.056   1.320   8.813  1.00 27.04    -0.080 Cl
HETATM   19  CAI   D T 401      -0.519   1.825   9.440  1.00 19.15     0.026 A 
HETATM   20  CAZ   D T 401      -1.787   1.430   9.904  1.00 21.66     0.076 A 
HETATM   21 CL2    D T 401      -2.998   2.614   9.990  1.00 21.61    -0.081 Cl
BRANCH  16  22
HETATM   22  O02   D T 401       1.339  -1.330   9.638  1.00 20.01    -0.327 OA
HETATM   23  C01   D T 401       1.912  -1.770  10.880  1.00 19.16     0.181 C 
ENDBRANCH  16  22
ENDBRANCH  13  14
ENDBRANCH  10  13
BRANCH   8  24
HETATM   24  OAV   D T 401      -1.753  -4.959  12.387  1.00 29.42    -0.326 OA
HETATM   25  CAA   D T 401      -0.401  -4.714  11.960  1.00 25.21     0.181 C 
ENDBRANCH   8  24
BRANCH   9  26
HETATM   26  OAW   D T 401      -3.520  -6.713  11.181  1.00 24.87    -0.329 OA
BRANCH  26  27
HETATM   27  CAN   D T 401      -3.019  -7.538  10.106  1.00 25.33     0.151 C 
BRANCH  27  28
HETATM   28  CAM   D T 401      -1.606  -8.011  10.555  1.00 30.63     0.068 C 
BRANCH  28  29
HETATM   29  CAC   D T 401      -1.531  -8.586  11.990  1.00 41.99     0.253 C 
BRANCH  29  30
HETATM   30  NBH   D T 401      -0.507  -9.683  12.168  1.00 46.77     0.141 N 
HETATM   31  CAP   D T 401      -0.159 -10.429  10.918  1.00 49.95     0.285 C 
HETATM   32  CAR   D T 401       0.748 -11.643  11.241  1.00 58.84     0.285 C 
HETATM   33  NBI   D T 401       1.974 -11.216  11.984  1.00 60.13     0.143 N 
HETATM   34  CAO   D T 401       2.919 -12.346  12.198  1.00 54.26     0.285 C 
HETATM   35  CAS   D T 401       1.647 -10.475  13.241  1.00 43.59     0.285 C 
HETATM   36  CAQ   D T 401       0.717  -9.273  12.933  1.00 43.83     0.285 C 
ENDBRANCH  29  30
ENDBRANCH  28  29
ENDBRANCH  27  28
ENDBRANCH  26  27
ENDBRANCH   9  26
TORSDOF 9
ENDMDL
MODEL 3
REMARK VINA RESULT:      -8.6      3.390      4.881
REMARK  9 active torsions:
REMARK  status: ('A' for Active; 'I' for Inactive)
REMARK    1  A    between atoms: O02_2  and  CAX_24 
REMARK    2  A    between atoms: CAC_3  and  CAM_13 
REMARK    3  A    between atoms: CAC_3  and  NBH_34 
REMARK    4  A    between atoms: CAM_13  and  CAN_14 
REMARK    5  A    between atoms: CAN_14  and  OAW_23 
REMARK    6  A    between atoms: NAU_21  and  CBB_28 
REMARK    7  A    between atoms: NAU_21  and  CBE_31 
REMARK    8  A    between atoms: OAV_22  and  CBC_29 
REMARK    9  A    between atoms: OAW_23  and  CBD_30 
ROOT
HETATM    1  NAD   D T 401      -5.621   2.728   7.673  1.00 19.83    -0.191 NA
HETATM    2  CAG   D T 401      -5.279   1.766   8.197  1.00 22.89     0.104 C 
HETATM    3  CAH   D T 401      -5.670  -0.473   8.466  1.00 14.94     0.111 A 
HETATM    4  CAK   D T 401      -4.119  -3.117  10.418  1.00 20.70     0.045 A 
HETATM    5  CAL   D T 401      -2.491  -0.981  11.221  1.00 20.29     0.029 A 
HETATM    6  NAT   D T 401      -5.373  -1.667   9.009  1.00 16.88    -0.243 NA
HETATM    7  CBA   D T 401      -4.906   0.663   8.796  1.00 16.47     0.105 A 
HETATM    8  CBC   D T 401      -2.249  -2.269  11.747  1.00 25.88     0.116 A 
HETATM    9  CBD   D T 401      -3.076  -3.338  11.334  1.00 27.06     0.118 A 
HETATM   10  CBE   D T 401      -3.818   0.547   9.732  1.00 22.24     0.094 A 
HETATM   11  CBF   D T 401      -4.355  -1.835   9.894  1.00 20.86     0.085 A 
HETATM   12  CBG   D T 401      -3.540  -0.736  10.288  1.00 20.86     0.038 A 
ENDROOT
BRANCH  10  13
HETATM   13  NAU   D T 401      -3.035   1.628  10.112  1.00 16.88    -0.244 NA
BRANCH  13  14
HETATM   14  CBB   D T 401      -1.681   1.607  10.302  1.00 19.80     0.094 A 
HETATM   15  CAJ   D T 401      -1.120   1.941  11.557  1.00 18.64     0.045 A 
HETATM   16  CAX   D T 401       0.277   1.933  11.724  1.00 17.07     0.106 A 
HETATM   17  CAY   D T 401       1.117   1.603  10.642  1.00 24.79     0.081 A 
HETATM   18 CL1    D T 401       2.799   1.621  10.875  1.00 27.04    -0.080 Cl
HETATM   19  CAI   D T 401       0.575   1.273   9.389  1.00 19.15     0.026 A 
HETATM   20  CAZ   D T 401      -0.822   1.277   9.219  1.00 21.66     0.076 A 
HETATM   21 CL2    D T 401      -1.431   0.874   7.688  1.00 21.61    -0.081 Cl
BRANCH  16  22
HETATM   22  O02   D T 401       0.881   2.264  12.905  1.00 20.01    -0.327 OA
HETATM   23  C01   D T 401       0.637   3.591  13.399  1.00 19.16     0.181 C 
ENDBRANCH  16  22
ENDBRANCH  13  14
ENDBRANCH  10  13
BRANCH   8  24
HETATM   24  OAV   D T 401      -1.240  -2.521  12.650  1.00 29.42    -0.326 OA
HETATM   25  CAA   D T 401      -0.083  -1.672  12.548  1.00 25.21     0.181 C 
ENDBRANCH   8  24
BRANCH   9  26
HETATM   26  OAW   D T 401      -2.878  -4.593  11.827  1.00 24.87    -0.329 OA
BRANCH  26  27
HETATM   27  CAN   D T 401      -2.836  -5.687  10.883  1.00 25.33     0.151 C 
BRANCH  27  28
HETATM   28  CAM   D T 401      -1.378  -5.727  10.342  1.00 30.63     0.068 C 
BRANCH  28  29
HETATM   29  CAC   D T 401      -0.275  -5.733  11.429  1.00 41.99     0.253 C 
BRANCH  29  30
HETATM   30  NBH   D T 401       1.038  -5.133  10.985  1.00 46.77     0.141 N 
HETATM   31  CAP   D T 401       0.931  -4.131   9.877  1.00 49.95     0.285 C 
HETATM   32  CAR   D T 401       2.338  -3.721   9.373  1.00 58.84     0.285 C 
HETATM   33  NBI   D T 401       3.184  -3.209  10.497  1.00 60.13     0.143 N 
HETATM   34  CAO   D T 401       4.496  -2.695  10.017  1.00 54.26     0.285 C 
HETATM   35  CAS   D T 401       3.309  -4.199  11.610  1.00 43.59     0.285 C 
HETATM   36  CAQ   D T 401       1.907  -4.637  12.104  1.00 43.83     0.285 C 
ENDBRANCH  29  30
ENDBRANCH  28  29
ENDBRANCH  27  28
ENDBRANCH  26  27
ENDBRANCH   9  26
TORSDOF 9
ENDMDL
MODEL 4
REMARK VINA RESULT:      -8.6      4.319      7.790
REMARK  9 active torsions:
REMARK  status: ('A' for Active; 'I' for Inactive)
REMARK    1  A    between atoms: O02_2  and  CAX_24 
REMARK    2  A    between atoms: CAC_3  and  CAM_13 
REMARK    3  A    between atoms: CAC_3  and  NBH_34 
REMARK    4  A    between atoms: CAM_13  and  CAN_14 
REMARK    5  A    between atoms: CAN_14  and  OAW_23 
REMARK    6  A    between atoms: NAU_21  and  CBB_28 
REMARK    7  A    between atoms: NAU_21  and  CBE_31 
REMARK    8  A    between atoms: OAV_22  and  CBC_29 
REMARK    9  A    between atoms: OAW_23  and  CBD_30 
ROOT
HETATM    1  NAD   D T 401      -5.985  -0.128   8.824  1.00 19.83    -0.191 NA
HETATM    2  CAG   D T 401      -4.954   0.285   9.115  1.00 22.89     0.104 C 
HETATM    3  CAH   D T 401      -3.303   1.777   8.579  1.00 14.94     0.111 A 
HETATM    4  CAK   D T 401      -0.070   2.623  10.003  1.00 20.70     0.045 A 
HETATM    5  CAL   D T 401      -0.813   0.605  11.799  1.00 20.29     0.029 A 
HETATM    6  NAT   D T 401      -2.109   2.349   8.809  1.00 16.88    -0.243 NA
HETATM    7  CBA   D T 401      -3.775   0.758   9.430  1.00 16.47     0.105 A 
HETATM    8  CBC   D T 401       0.429   1.256  11.968  1.00 25.88     0.116 A 
HETATM    9  CBD   D T 401       0.793   2.272  11.056  1.00 27.06     0.118 A 
HETATM   10  CBE   D T 401      -2.965   0.318  10.536  1.00 22.24     0.094 A 
HETATM   11  CBF   D T 401      -1.306   1.976   9.840  1.00 20.86     0.085 A 
HETATM   12  CBG   D T 401      -1.703   0.949  10.741  1.00 20.86     0.038 A 
ENDROOT
BRANCH  10  13
HETATM   13  NAU   D T 401      -3.363  -0.689  11.404  1.00 16.88    -0.244 NA
BRANCH  13  14
HETATM   14  CBB   D T 401      -3.366  -2.028  11.127  1.00 19.80     0.094 A 
HETATM   15  CAJ   D T 401      -4.440  -2.619  10.420  1.00 18.64     0.045 A 
HETATM   16  CAX   D T 401      -4.433  -4.003  10.165  1.00 17.07     0.106 A 
HETATM   17  CAY   D T 401      -3.365  -4.801  10.620  1.00 24.79     0.081 A 
HETATM   18 CL1    D T 401      -3.398  -6.471  10.310  1.00 27.04    -0.080 Cl
HETATM   19  CAI   D T 401      -2.294  -4.229  11.328  1.00 19.15     0.026 A 
HETATM   20  CAZ   D T 401      -2.296  -2.845  11.582  1.00 21.66     0.076 A 
HETATM   21 CL2    D T 401      -0.984  -2.199  12.440  1.00 21.61    -0.081 Cl
BRANCH  16  22
HETATM   22  O02   D T 401      -5.448  -4.637   9.504  1.00 20.01    -0.327 OA
HETATM   23  C01   D T 401      -6.379  -3.795   8.804  1.00 19.16     0.181 C 
ENDBRANCH  16  22
ENDBRANCH  13  14
ENDBRANCH  10  13
BRANCH   8  24
HETATM   24  OAV   D T 401       1.300   0.934  12.985  1.00 29.42    -0.326 OA
HETATM   25  CAA   D T 401       1.976  -0.330  12.854  1.00 25.21     0.181 C 
ENDBRANCH   8  24
BRANCH   9  26
HETATM   26  OAW   D T 401       1.987   2.916  11.182  1.00 24.87    -0.329 OA
BRANCH  26  27
HETATM   27  CAN   D T 401       2.837   2.988  10.015  1.00 25.33     0.151 C 
BRANCH  27  28
HETATM   28  CAM   D T 401       3.553   1.609   9.924  1.00 30.63     0.068 C 
BRANCH  28  29
HETATM   29  CAC   D T 401       3.256   0.798   8.639  1.00 41.99     0.253 C 
BRANCH  29  30
HETATM   30  NBH   D T 401       2.807  -0.622   8.890  1.00 46.77     0.141 N 
HETATM   31  CAP   D T 401       3.672  -1.400   9.833  1.00 49.95     0.285 C 
HETATM   32  CAR   D T 401       3.237  -2.886   9.874  1.00 58.84     0.285 C 
HETATM   33  NBI   D T 401       1.789  -3.013  10.227  1.00 60.13     0.143 N 
HETATM   34  CAO   D T 401       1.377  -4.434  10.393  1.00 54.26     0.285 C 
HETATM   35  CAS   D T 401       0.907  -2.249   9.292  1.00 43.59     0.285 C 
HETATM   36  CAQ   D T 401       1.350  -0.766   9.222  1.00 43.83     0.285 C 
ENDBRANCH  29  30
ENDBRANCH  28  29
ENDBRANCH  27  28
ENDBRANCH  26  27
ENDBRANCH   9  26
TORSDOF 9
ENDMDL
MODEL 5
REMARK VINA RESULT:      -8.4      5.226      9.839
REMARK  9 active torsions:
REMARK  status: ('A' for Active; 'I' for Inactive)
REMARK    1  A    between atoms: O02_2  and  CAX_24 
REMARK    2  A    between atoms: CAC_3  and  CAM_13 
REMARK    3  A    between atoms: CAC_3  and  NBH_34 
REMARK    4  A    between atoms: CAM_13  and  CAN_14 
REMARK    5  A    between atoms: CAN_14  and  OAW_23 
REMARK    6  A    between atoms: NAU_21  and  CBB_28 
REMARK    7  A    between atoms: NAU_21  and  CBE_31 
REMARK    8  A    between atoms: OAV_22  and  CBC_29 
REMARK    9  A    between atoms: OAW_23  and  CBD_30 
ROOT
HETATM    1  NAD   D T 401       0.138  -4.606  10.036  1.00 19.83    -0.191 NA
HETATM    2  CAG   D T 401       0.483  -3.511  10.055  1.00 22.89     0.104 C 
HETATM    3  CAH   D T 401       2.067  -2.022   9.339  1.00 14.94     0.111 A 
HETATM    4  CAK   D T 401       2.616   1.539   9.803  1.00 20.70     0.045 A 
HETATM    5  CAL   D T 401       0.289   1.261  11.340  1.00 20.29     0.029 A 
HETATM    6  NAT   D T 401       2.577  -0.780   9.276  1.00 16.88    -0.243 NA
HETATM    7  CBA   D T 401       0.893  -2.268  10.077  1.00 16.47     0.105 A 
HETATM    8  CBC   D T 401       0.892   2.533  11.225  1.00 25.88     0.116 A 
HETATM    9  CBD   D T 401       2.064   2.661  10.447  1.00 27.06     0.118 A 
HETATM   10  CBE   D T 401       0.252  -1.188  10.782  1.00 22.24     0.094 A 
HETATM   11  CBF   D T 401       2.011   0.277   9.917  1.00 20.86     0.085 A 
HETATM   12  CBG   D T 401       0.829   0.113  10.692  1.00 20.86     0.038 A 
ENDROOT
BRANCH  10  13
HETATM   13  NAU   D T 401      -0.898  -1.363  11.538  1.00 16.88    -0.244 NA
BRANCH  13  14
HETATM   14  CBB   D T 401      -2.169  -1.474  11.047  1.00 19.80     0.094 A 
HETATM   15  CAJ   D T 401      -2.727  -0.454  10.241  1.00 18.64     0.045 A 
HETATM   16  CAX   D T 401      -4.045  -0.581   9.765  1.00 17.07     0.106 A 
HETATM   17  CAY   D T 401      -4.811  -1.716  10.096  1.00 24.79     0.081 A 
HETATM   18 CL1    D T 401      -6.404  -1.827   9.517  1.00 27.04    -0.080 Cl
HETATM   19  CAI   D T 401      -4.273  -2.735  10.898  1.00 19.15     0.026 A 
HETATM   20  CAZ   D T 401      -2.954  -2.613  11.374  1.00 21.66     0.076 A 
HETATM   21 CL2    D T 401      -2.346  -3.867  12.341  1.00 21.61    -0.081 Cl
BRANCH  16  22
HETATM   22  O02   D T 401      -4.648   0.378   8.998  1.00 20.01    -0.327 OA
HETATM   23  C01   D T 401      -3.781   1.352   8.395  1.00 19.16     0.181 C 
ENDBRANCH  16  22
ENDBRANCH  13  14
ENDBRANCH  10  13
BRANCH   8  24
HETATM   24  OAV   D T 401       0.382   3.652  11.846  1.00 29.42    -0.326 OA
HETATM   25  CAA   D T 401       0.604   3.735  13.266  1.00 25.21     0.181 C 
ENDBRANCH   8  24
BRANCH   9  26
HETATM   26  OAW   D T 401       2.679   3.870  10.320  1.00 24.87    -0.329 OA
BRANCH  26  27
HETATM   27  CAN   D T 401       3.693   4.005   9.299  1.00 25.33     0.151 C 
BRANCH  27  28
HETATM   28  CAM   D T 401       4.965   4.527  10.027  1.00 30.63     0.068 C 
BRANCH  28  29
HETATM   29  CAC   D T 401       6.229   3.651   9.852  1.00 41.99     0.253 C 
BRANCH  29  30
HETATM   30  NBH   D T 401       5.950   2.170   9.754  1.00 46.77     0.141 N 
HETATM   31  CAP   D T 401       6.441   1.517   8.499  1.00 49.95     0.285 C 
HETATM   32  CAR   D T 401       5.942   0.052   8.415  1.00 58.84     0.285 C 
HETATM   33  NBI   D T 401       6.343  -0.723   9.630  1.00 60.13     0.143 N 
HETATM   34  CAO   D T 401       5.982  -2.164   9.516  1.00 54.26     0.285 C 
HETATM   35  CAS   D T 401       5.856  -0.091  10.893  1.00 43.59     0.285 C 
HETATM   36  CAQ   D T 401       6.326   1.384  10.976  1.00 43.83     0.285 C 
ENDBRANCH  29  30
ENDBRANCH  28  29
ENDBRANCH  27  28
ENDBRANCH  26  27
ENDBRANCH   9  26
TORSDOF 9
ENDMDL
MODEL 6
REMARK VINA RESULT:      -8.4      4.056      8.848
REMARK  9 active torsions:
REMARK  status: ('A' for Active; 'I' for Inactive)
REMARK    1  A    between atoms: O02_2  and  CAX_24 
REMARK    2  A    between atoms: CAC_3  and  CAM_13 
REMARK    3  A    between atoms: CAC_3  and  NBH_34 
REMARK    4  A    between atoms: CAM_13  and  CAN_14 
REMARK    5  A    between atoms: CAN_14  and  OAW_23 
REMARK    6  A    between atoms: NAU_21  and  CBB_28 
REMARK    7  A    between atoms: NAU_21  and  CBE_31 
REMARK    8  A    between atoms: OAV_22  and  CBC_29 
REMARK    9  A    between atoms: OAW_23  and  CBD_30 
ROOT
HETATM    1  NAD   D T 401      -6.069  -5.236  10.919  1.00 19.83    -0.191 NA
HETATM    2  CAG   D T 401      -4.992  -4.837  10.886  1.00 22.89     0.104 C 
HETATM    3  CAH   D T 401      -2.782  -5.398  10.686  1.00 14.94     0.111 A 
HETATM    4  CAK   D T 401       0.333  -3.528  10.675  1.00 20.70     0.045 A 
HETATM    5  CAL   D T 401      -1.446  -1.393  11.039  1.00 20.29     0.029 A 
HETATM    6  NAT   D T 401      -1.481  -5.066  10.627  1.00 16.88    -0.243 NA
HETATM    7  CBA   D T 401      -3.760  -4.398  10.856  1.00 16.47     0.105 A 
HETATM    8  CBC   D T 401      -0.060  -1.132  10.970  1.00 25.88     0.116 A 
HETATM    9  CBD   D T 401       0.827  -2.216  10.786  1.00 27.06     0.118 A 
HETATM   10  CBE   D T 401      -3.359  -3.021  10.988  1.00 22.24     0.094 A 
HETATM   11  CBF   D T 401      -1.047  -3.783  10.741  1.00 20.86     0.085 A 
HETATM   12  CBG   D T 401      -1.968  -2.714  10.925  1.00 20.86     0.038 A 
ENDROOT
BRANCH  10  13
HETATM   13  NAU   D T 401      -4.268  -1.989  11.172  1.00 16.88    -0.244 NA
BRANCH  13  14
HETATM   14  CBB   D T 401      -4.457  -0.930  10.328  1.00 19.80     0.094 A 
HETATM   15  CAJ   D T 401      -3.801   0.303  10.554  1.00 18.64     0.045 A 
HETATM   16  CAX   D T 401      -4.027   1.386   9.684  1.00 17.07     0.106 A 
HETATM   17  CAY   D T 401      -4.911   1.247   8.596  1.00 24.79     0.081 A 
HETATM   18 CL1    D T 401      -5.174   2.580   7.577  1.00 27.04    -0.080 Cl
HETATM   19  CAI   D T 401      -5.573   0.031   8.361  1.00 19.15     0.026 A 
HETATM   20  CAZ   D T 401      -5.347  -1.055   9.227  1.00 21.66     0.076 A 
HETATM   21 CL2    D T 401      -6.169  -2.504   8.906  1.00 21.61    -0.081 Cl
BRANCH  16  22
HETATM   22  O02   D T 401      -3.439   2.608   9.858  1.00 20.01    -0.327 OA
HETATM   23  C01   D T 401      -2.009   2.654   9.729  1.00 19.16     0.181 C 
ENDBRANCH  16  22
ENDBRANCH  13  14
ENDBRANCH  10  13
BRANCH   8  24
HETATM   24  OAV   D T 401       0.458   0.139  11.079  1.00 29.42    -0.326 OA
HETATM   25  CAA   D T 401       0.625   0.634  12.420  1.00 25.21     0.181 C 
ENDBRANCH   8  24
BRANCH   9  26
HETATM   26  OAW   D T 401       2.171  -2.004  10.723  1.00 24.87    -0.329 OA
BRANCH  26  27
HETATM   27  CAN   D T 401       2.838  -2.280   9.471  1.00 25.33     0.151 C 
BRANCH  27  28
HETATM   28  CAM   D T 401       3.700  -1.022   9.161  1.00 30.63     0.068 C 
BRANCH  28  29
HETATM   29  CAC   D T 401       3.944  -0.080  10.366  1.00 41.99     0.253 C 
BRANCH  29  30
HETATM   30  NBH   D T 401       4.223   1.355   9.986  1.00 46.77     0.141 N 
HETATM   31  CAP   D T 401       5.131   1.531   8.809  1.00 49.95     0.285 C 
HETATM   32  CAR   D T 401       5.500   3.025   8.623  1.00 58.84     0.285 C 
HETATM   33  NBI   D T 401       4.272   3.870   8.499  1.00 60.13     0.143 N 
HETATM   34  CAO   D T 401       4.602   5.290   8.196  1.00 54.26     0.285 C 
HETATM   35  CAS   D T 401       3.355   3.714   9.669  1.00 43.59     0.285 C 
HETATM   36  CAQ   D T 401       3.001   2.220   9.882  1.00 43.83     0.285 C 
ENDBRANCH  29  30
ENDBRANCH  28  29
ENDBRANCH  27  28
ENDBRANCH  26  27
ENDBRANCH   9  26
TORSDOF 9
ENDMDL
MODEL 7
REMARK VINA RESULT:      -8.4      1.701      2.210
REMARK  9 active torsions:
REMARK  status: ('A' for Active; 'I' for Inactive)
REMARK    1  A    between atoms: O02_2  and  CAX_24 
REMARK    2  A    between atoms: CAC_3  and  CAM_13 
REMARK    3  A    between atoms: CAC_3  and  NBH_34 
REMARK    4  A    between atoms: CAM_13  and  CAN_14 
REMARK    5  A    between atoms: CAN_14  and  OAW_23 
REMARK    6  A    between atoms: NAU_21  and  CBB_28 
REMARK    7  A    between atoms: NAU_21  and  CBE_31 
REMARK    8  A    between atoms: OAV_22  and  CBC_29 
REMARK    9  A    between atoms: OAW_23  and  CBD_30 
ROOT
HETATM    1  NAD   D T 401      -4.714   3.361   9.212  1.00 19.83    -0.191 NA
HETATM    2  CAG   D T 401      -4.598   2.242   9.443  1.00 22.89     0.104 C 
HETATM    3  CAH   D T 401      -5.519   0.162   9.192  1.00 14.94     0.111 A 
HETATM    4  CAK   D T 401      -4.585  -3.185  10.252  1.00 20.70     0.045 A 
HETATM    5  CAL   D T 401      -2.445  -1.768  11.378  1.00 20.29     0.029 A 
HETATM    6  NAT   D T 401      -5.502  -1.168   9.387  1.00 16.88    -0.243 NA
HETATM    7  CBA   D T 401      -4.483   0.966   9.708  1.00 16.47     0.105 A 
HETATM    8  CBC   D T 401      -2.507  -3.170  11.540  1.00 25.88     0.116 A 
HETATM    9  CBD   D T 401      -3.590  -3.873  10.968  1.00 27.06     0.118 A 
HETATM   10  CBE   D T 401      -3.417   0.360  10.464  1.00 22.24     0.094 A 
HETATM   11  CBF   D T 401      -4.519  -1.792  10.089  1.00 20.86     0.085 A 
HETATM   12  CBG   D T 401      -3.442  -1.053  10.652  1.00 20.86     0.038 A 
ENDROOT
BRANCH  10  13
HETATM   13  NAU   D T 401      -2.375   1.095  11.011  1.00 16.88    -0.244 NA
BRANCH  13  14
HETATM   14  CBB   D T 401      -1.046   0.921  10.741  1.00 19.80     0.094 A 
HETATM   15  CAJ   D T 401      -0.112   0.734  11.787  1.00 18.64     0.045 A 
HETATM   16  CAX   D T 401       1.255   0.578  11.487  1.00 17.07     0.106 A 
HETATM   17  CAY   D T 401       1.693   0.617  10.148  1.00 24.79     0.081 A 
HETATM   18 CL1    D T 401       3.351   0.443   9.823  1.00 27.04    -0.080 Cl
HETATM   19  CAI   D T 401       0.778   0.805   9.099  1.00 19.15     0.026 A 
HETATM   20  CAZ   D T 401      -0.589   0.959   9.396  1.00 21.66     0.076 A 
HETATM   21 CL2    D T 401      -1.657   1.185   8.098  1.00 21.61    -0.081 Cl
BRANCH  16  22
HETATM   22  O02   D T 401       2.209   0.413  12.452  1.00 20.01    -0.327 OA
HETATM   23  C01   D T 401       2.374  -0.918  12.967  1.00 19.16     0.181 C 
ENDBRANCH  16  22
ENDBRANCH  13  14
ENDBRANCH  10  13
BRANCH   8  24
HETATM   24  OAV   D T 401      -1.552  -3.875  12.240  1.00 29.42    -0.326 OA
HETATM   25  CAA   D T 401      -0.215  -3.811  11.712  1.00 25.21     0.181 C 
ENDBRANCH   8  24
BRANCH   9  26
HETATM   26  OAW   D T 401      -3.687  -5.225  11.112  1.00 24.87    -0.329 OA
BRANCH  26  27
HETATM   27  CAN   D T 401      -4.103  -5.995   9.961  1.00 25.33     0.151 C 
BRANCH  27  28
HETATM   28  CAM   D T 401      -2.855  -6.813   9.523  1.00 30.63     0.068 C 
BRANCH  28  29
HETATM   29  CAC   D T 401      -1.785  -7.020  10.624  1.00 41.99     0.253 C 
BRANCH  29  30
HETATM   30  NBH   D T 401      -1.818  -8.383  11.275  1.00 46.77     0.141 N 
HETATM   31  CAP   D T 401      -0.561  -9.183  11.127  1.00 49.95     0.285 C 
HETATM   32  CAR   D T 401      -0.765 -10.623  11.661  1.00 58.84     0.285 C 
HETATM   33  NBI   D T 401      -1.243 -10.609  13.078  1.00 60.13     0.143 N 
HETATM   34  CAO   D T 401      -1.328 -11.980  13.652  1.00 54.26     0.285 C 
HETATM   35  CAS   D T 401      -2.502  -9.821  13.245  1.00 43.59     0.285 C 
HETATM   36  CAQ   D T 401      -2.319  -8.385  12.689  1.00 43.83     0.285 C 
ENDBRANCH  29  30
ENDBRANCH  28  29
ENDBRANCH  27  28
ENDBRANCH  26  27
ENDBRANCH   9  26
TORSDOF 9
ENDMDL
MODEL 8
REMARK VINA RESULT:      -8.3      4.691      8.336
REMARK  9 active torsions:
REMARK  status: ('A' for Active; 'I' for Inactive)
REMARK    1  A    between atoms: O02_2  and  CAX_24 
REMARK    2  A    between atoms: CAC_3  and  CAM_13 
REMARK    3  A    between atoms: CAC_3  and  NBH_34 
REMARK    4  A    between atoms: CAM_13  and  CAN_14 
REMARK    5  A    between atoms: CAN_14  and  OAW_23 
REMARK    6  A    between atoms: NAU_21  and  CBB_28 
REMARK    7  A    between atoms: NAU_21  and  CBE_31 
REMARK    8  A    between atoms: OAV_22  and  CBC_29 
REMARK    9  A    between atoms: OAW_23  and  CBD_30 
ROOT
HETATM    1  NAD   D T 401      -2.537   2.241  10.298  1.00 19.83    -0.191 NA
HETATM    2  CAG   D T 401      -1.716   1.450  10.154  1.00 22.89     0.104 C 
HETATM    3  CAH   D T 401       0.297   0.983   9.171  1.00 14.94     0.111 A 
HETATM    4  CAK   D T 401       2.489  -1.914   9.100  1.00 20.70     0.045 A 
HETATM    5  CAL   D T 401       0.442  -2.966  10.699  1.00 20.29     0.029 A 
HETATM    6  NAT   D T 401       1.327   0.155   8.926  1.00 16.88    -0.243 NA
HETATM    7  CBA   D T 401      -0.779   0.555   9.973  1.00 16.47     0.105 A 
HETATM    8  CBC   D T 401       1.560  -3.772  10.389  1.00 25.88     0.116 A 
HETATM    9  CBD   D T 401       2.586  -3.231   9.583  1.00 27.06     0.118 A 
HETATM   10  CBE   D T 401      -0.782  -0.781  10.512  1.00 22.24     0.094 A 
HETATM   11  CBF   D T 401       1.378  -1.114   9.412  1.00 20.86     0.085 A 
HETATM   12  CBG   D T 401       0.327  -1.628  10.223  1.00 20.86     0.038 A 
ENDROOT
BRANCH  10  13
HETATM   13  NAU   D T 401      -1.817  -1.271  11.297  1.00 16.88    -0.244 NA
BRANCH  13  14
HETATM   14  CBB   D T 401      -2.946  -1.888  10.837  1.00 19.80     0.094 A 
HETATM   15  CAJ   D T 401      -3.859  -1.202  10.001  1.00 18.64     0.045 A 
HETATM   16  CAX   D T 401      -5.026  -1.851   9.557  1.00 17.07     0.106 A 
HETATM   17  CAY   D T 401      -5.291  -3.178   9.950  1.00 24.79     0.081 A 
HETATM   18 CL1    D T 401      -6.717  -3.924   9.410  1.00 27.04    -0.080 Cl
HETATM   19  CAI   D T 401      -4.396  -3.871  10.783  1.00 19.15     0.026 A 
HETATM   20  CAZ   D T 401      -3.227  -3.226  11.226  1.00 21.66     0.076 A 
HETATM   21 CL2    D T 401      -2.177  -4.101  12.231  1.00 21.61    -0.081 Cl
BRANCH  16  22
HETATM   22  O02   D T 401      -5.955  -1.237   8.765  1.00 20.01    -0.327 OA
HETATM   23  C01   D T 401      -5.766   0.167   8.527  1.00 19.16     0.181 C 
ENDBRANCH  16  22
ENDBRANCH  13  14
ENDBRANCH  10  13
BRANCH   8  24
HETATM   24  OAV   D T 401       1.684  -5.068  10.841  1.00 29.42    -0.326 OA
HETATM   25  CAA   D T 401       2.079  -5.216  12.217  1.00 25.21     0.181 C 
ENDBRANCH   8  24
BRANCH   9  26
HETATM   26  OAW   D T 401       3.675  -3.982   9.256  1.00 24.87    -0.329 OA
BRANCH  26  27
HETATM   27  CAN   D T 401       4.980  -3.431   9.541  1.00 25.33     0.151 C 
BRANCH  27  28
HETATM   28  CAM   D T 401       5.129  -3.466  11.090  1.00 30.63     0.068 C 
BRANCH  28  29
HETATM   29  CAC   D T 401       5.622  -2.146  11.732  1.00 41.99     0.253 C 
BRANCH  29  30
HETATM   30  NBH   D T 401       4.788  -0.935  11.384  1.00 46.77     0.141 N 
HETATM   31  CAP   D T 401       3.920  -0.428  12.493  1.00 49.95     0.285 C 
HETATM   32  CAR   D T 401       2.975   0.688  11.979  1.00 58.84     0.285 C 
HETATM   33  NBI   D T 401       3.749   1.796  11.338  1.00 60.13     0.143 N 
HETATM   34  CAO   D T 401       2.874   2.935  10.947  1.00 54.26     0.285 C 
HETATM   35  CAS   D T 401       4.618   1.310  10.223  1.00 43.59     0.285 C 
HETATM   36  CAQ   D T 401       5.549   0.174  10.718  1.00 43.83     0.285 C 
ENDBRANCH  29  30
ENDBRANCH  28  29
ENDBRANCH  27  28
ENDBRANCH  26  27
ENDBRANCH   9  26
TORSDOF 9
ENDMDL
MODEL 9
REMARK VINA RESULT:      -8.2      4.682      9.082
REMARK  9 active torsions:
REMARK  status: ('A' for Active; 'I' for Inactive)
REMARK    1  A    between atoms: O02_2  and  CAX_24 
REMARK    2  A    between atoms: CAC_3  and  CAM_13 
REMARK    3  A    between atoms: CAC_3  and  NBH_34 
REMARK    4  A    between atoms: CAM_13  and  CAN_14 
REMARK    5  A    between atoms: CAN_14  and  OAW_23 
REMARK    6  A    between atoms: NAU_21  and  CBB_28 
REMARK    7  A    between atoms: NAU_21  and  CBE_31 
REMARK    8  A    between atoms: OAV_22  and  CBC_29 
REMARK    9  A    between atoms: OAW_23  and  CBD_30 
ROOT
HETATM    1  NAD   D T 401      -3.028   2.237  10.663  1.00 19.83    -0.191 NA
HETATM    2  CAG   D T 401      -2.088   1.597  10.500  1.00 22.89     0.104 C 
HETATM    3  CAH   D T 401      -0.011   1.511   9.543  1.00 14.94     0.111 A 
HETATM    4  CAK   D T 401       2.622  -0.988   9.383  1.00 20.70     0.045 A 
HETATM    5  CAL   D T 401       0.748  -2.437  10.881  1.00 20.29     0.029 A 
HETATM    6  NAT   D T 401       1.143   0.873   9.282  1.00 16.88    -0.243 NA
HETATM    7  CBA   D T 401      -1.016   0.874  10.298  1.00 16.47     0.105 A 
HETATM    8  CBC   D T 401       1.986  -3.035  10.559  1.00 25.88     0.116 A 
HETATM    9  CBD   D T 401       2.923  -2.295   9.804  1.00 27.06     0.118 A 
HETATM   10  CBE   D T 401      -0.811  -0.470  10.772  1.00 22.24     0.094 A 
HETATM   11  CBF   D T 401       1.391  -0.394   9.708  1.00 20.86     0.085 A 
HETATM   12  CBG   D T 401       0.425  -1.112  10.467  1.00 20.86     0.038 A 
ENDROOT
BRANCH  10  13
HETATM   13  NAU   D T 401      -1.764  -1.160  11.508  1.00 16.88    -0.244 NA
BRANCH  13  14
HETATM   14  CBB   D T 401      -2.822  -1.857  10.993  1.00 19.80     0.094 A 
HETATM   15  CAJ   D T 401      -3.731  -1.240  10.100  1.00 18.64     0.045 A 
HETATM   16  CAX   D T 401      -4.825  -1.971   9.600  1.00 17.07     0.106 A 
HETATM   17  CAY   D T 401      -5.020  -3.310   9.992  1.00 24.79     0.081 A 
HETATM   18 CL1    D T 401      -6.361  -4.156   9.382  1.00 27.04    -0.080 Cl
HETATM   19  CAI   D T 401      -4.129  -3.934  10.881  1.00 19.15     0.026 A 
HETATM   20  CAZ   D T 401      -3.033  -3.207  11.381  1.00 21.66     0.076 A 
HETATM   21 CL2    D T 401      -1.983  -4.001  12.452  1.00 21.61    -0.081 Cl
BRANCH  16  22
HETATM   22  O02   D T 401      -5.748  -1.428   8.750  1.00 20.01    -0.327 OA
HETATM   23  C01   D T 401      -5.754   0.005   8.643  1.00 19.16     0.181 C 
ENDBRANCH  16  22
ENDBRANCH  13  14
ENDBRANCH  10  13
BRANCH   8  24
HETATM   24  OAV   D T 401       2.311  -4.315  10.950  1.00 29.42    -0.326 OA
HETATM   25  CAA   D T 401       1.209  -5.144  11.360  1.00 25.21     0.181 C 
ENDBRANCH   8  24
BRANCH   9  26
HETATM   26  OAW   D T 401       4.123  -2.843   9.467  1.00 24.87    -0.329 OA
BRANCH  26  27
HETATM   27  CAN   D T 401       5.247  -2.589  10.340  1.00 25.33     0.151 C 
BRANCH  27  28
HETATM   28  CAM   D T 401       6.403  -2.108   9.417  1.00 30.63     0.068 C 
BRANCH  28  29
HETATM   29  CAC   D T 401       6.878  -0.654   9.662  1.00 41.99     0.253 C 
BRANCH  29  30
HETATM   30  NBH   D T 401       5.764   0.364   9.707  1.00 46.77     0.141 N 
HETATM   31  CAP   D T 401       5.616   1.081  11.013  1.00 49.95     0.285 C 
HETATM   32  CAR   D T 401       4.338   1.957  11.014  1.00 58.84     0.285 C 
HETATM   33  NBI   D T 401       4.341   2.912   9.862  1.00 60.13     0.143 N 
HETATM   34  CAO   D T 401       3.184   3.848   9.911  1.00 54.26     0.285 C 
HETATM   35  CAS   D T 401       4.480   2.215   8.547  1.00 43.59     0.285 C 
HETATM   36  CAQ   D T 401       5.740   1.313   8.544  1.00 43.83     0.285 C 
ENDBRANCH  29  30
ENDBRANCH  28  29
ENDBRANCH  27  28
ENDBRANCH  26  27
ENDBRANCH   9  26
TORSDOF 9
ENDMDL
