MODEL 1
REMARK VINA RESULT:      -8.1      0.000      0.000
REMARK  7 active torsions:
REMARK  status: ('A' for Active; 'I' for Inactive)
REMARK    1  A    between atoms: N_5  and  C_15 
REMARK    2  A    between atoms: N_7  and  C_22 
REMARK       I    between atoms: N_7  and  C_24 
REMARK    3  A    between atoms: C_15  and  C_16 
REMARK    4  A    between atoms: C_18  and  C_23 
REMARK    5  A    between atoms: C_24  and  C_25 
REMARK    6  A    between atoms: C_28  and  C_32 
REMARK    7  A    between atoms: C_33  and  C_35 
ROOT
HETATM    1  O   UNL     1      -1.771 -39.089  20.656  1.00  0.00    -0.267 OA
HETATM    2  N   UNL     1      -4.048 -39.561  21.000  1.00  0.00    -0.323 N 
HETATM    3  C   UNL     1      -2.678 -39.611  21.293  1.00  0.00     0.256 C 
HETATM    4  H   UNL     1      -4.692 -40.010  21.646  1.00  0.00     0.169 HD
ENDROOT
BRANCH   2   5
HETATM    5  C   UNL     1      -4.675 -38.916  19.934  1.00  0.00     0.035 A 
HETATM    6  C   UNL     1      -5.093 -37.592  20.069  1.00  0.00     0.046 A 
HETATM    7  C   UNL     1      -5.721 -36.946  19.003  1.00  0.00     0.058 A 
HETATM    8  C   UNL     1      -5.928 -37.624  17.803  1.00  0.00    -0.015 A 
HETATM    9  C   UNL     1      -5.508 -38.948  17.667  1.00  0.00     0.012 A 
HETATM   10  C   UNL     1      -4.882 -39.593  18.733  1.00  0.00     0.030 A 
BRANCH   7  11
HETATM   11  C   UNL     1      -6.159 -35.528  19.170  1.00  0.00     0.418 C 
HETATM   12  F   UNL     1      -5.603 -34.674  18.261  1.00  0.00    -0.166 F 
HETATM   13  F   UNL     1      -7.507 -35.356  19.045  1.00  0.00    -0.166 F 
HETATM   14  F   UNL     1      -5.836 -35.022  20.395  1.00  0.00    -0.166 F 
ENDBRANCH   7  11
BRANCH   8  15
HETATM   15  C   UNL     1      -6.601 -36.948  16.637  1.00  0.00     0.311 C 
BRANCH  15  16
HETATM   16  N   UNL     1      -5.829 -37.093  15.404  1.00  0.00     0.096 N 
HETATM   17  C   UNL     1      -4.749 -36.102  15.346  1.00  0.00     0.303 C 
HETATM   18  C   UNL     1      -3.940 -36.251  14.052  1.00  0.00     0.302 C 
HETATM   19  N   UNL     1      -4.810 -36.131  12.876  1.00  0.00     0.087 N 
HETATM   20  C   UNL     1      -5.892 -37.121  12.934  1.00  0.00     0.302 C 
HETATM   21  C   UNL     1      -4.038 -36.277  11.643  1.00  0.00     0.310 C 
HETATM   22  C   UNL     1      -6.700 -36.972  14.228  1.00  0.00     0.303 C 
ENDBRANCH  15  16
ENDBRANCH   8  15
ENDBRANCH   2   5
BRANCH   3  23
HETATM   23  C   UNL     1      -2.313 -40.407  22.494  1.00  0.00     0.033 A 
HETATM   24  C   UNL     1      -3.298 -40.796  23.401  1.00  0.00     0.038 A 
HETATM   25  C   UNL     1      -2.954 -41.544  24.527  1.00  0.00     0.025 A 
HETATM   26  C   UNL     1      -1.625 -41.905  24.746  1.00  0.00    -0.043 A 
HETATM   27  C   UNL     1      -0.639 -41.516  23.838  1.00  0.00     0.009 A 
HETATM   28  C   UNL     1      -1.219 -42.707  25.941  1.00  0.00     0.049 C 
HETATM   29  C   UNL     1      -0.983 -40.768  22.712  1.00  0.00     0.017 A 
BRANCH  25  30
HETATM   30  C   UNL     1      -3.984 -41.930  25.444  1.00  0.00    -0.059 C 
HETATM   31  C   UNL     1      -4.848 -42.254  26.214  1.00  0.00    -0.040 C 
BRANCH  31  32
HETATM   32  C   UNL     1      -5.875 -42.639  27.129  1.00  0.00     0.131 A 
HETATM   33  N   UNL     1      -7.180 -42.917  26.817  1.00  0.00    -0.206 N 
HETATM   34  N   UNL     1      -7.728 -42.872  25.569  1.00  0.00    -0.177 NA
HETATM   35  C   UNL     1      -7.821 -43.246  27.998  1.00  0.00     0.151 A 
HETATM   36  C   UNL     1      -8.986 -43.181  25.557  1.00  0.00     0.139 A 
HETATM   37  C   UNL     1      -9.810 -43.556  26.731  1.00  0.00     0.025 A 
HETATM   38  C   UNL     1      -9.195 -43.575  27.919  1.00  0.00     0.054 A 
HETATM   39  N   UNL     1      -6.993 -43.190  29.022  1.00  0.00    -0.238 NA
HETATM   40  C   UNL     1      -5.786 -42.815  28.490  1.00  0.00     0.160 A 
ENDBRANCH  31  32
ENDBRANCH  25  30
ENDBRANCH   3  23
TORSDOF 7
ENDMDL
MODEL 2
REMARK VINA RESULT:      -7.9      6.879     12.804
REMARK  7 active torsions:
REMARK  status: ('A' for Active; 'I' for Inactive)
REMARK    1  A    between atoms: N_5  and  C_15 
REMARK    2  A    between atoms: N_7  and  C_22 
REMARK       I    between atoms: N_7  and  C_24 
REMARK    3  A    between atoms: C_15  and  C_16 
REMARK    4  A    between atoms: C_18  and  C_23 
REMARK    5  A    between atoms: C_24  and  C_25 
REMARK    6  A    between atoms: C_28  and  C_32 
REMARK    7  A    between atoms: C_33  and  C_35 
ROOT
HETATM    1  O   UNL     1       0.209 -41.486  26.030  1.00  0.00    -0.267 OA
HETATM    2  N   UNL     1      -0.185 -43.787  25.755  1.00  0.00    -0.323 N 
HETATM    3  C   UNL     1      -0.331 -42.426  25.457  1.00  0.00     0.256 C 
HETATM    4  H   UNL     1      -0.667 -44.460  25.165  1.00  0.00     0.169 HD
ENDROOT
BRANCH   2   5
HETATM    5  C   UNL     1       0.594 -44.369  26.755  1.00  0.00     0.035 A 
HETATM    6  C   UNL     1       1.927 -44.694  26.499  1.00  0.00     0.046 A 
HETATM    7  C   UNL     1       2.707 -45.276  27.500  1.00  0.00     0.058 A 
HETATM    8  C   UNL     1       2.155 -45.530  28.754  1.00  0.00    -0.015 A 
HETATM    9  C   UNL     1       0.823 -45.204  29.010  1.00  0.00     0.012 A 
HETATM   10  C   UNL     1       0.043 -44.624  28.010  1.00  0.00     0.030 A 
BRANCH   7  11
HETATM   11  C   UNL     1       4.131 -45.614  27.204  1.00  0.00     0.418 C 
HETATM   12  F   UNL     1       4.512 -45.309  25.928  1.00  0.00    -0.166 F 
HETATM   13  F   UNL     1       5.023 -44.964  28.008  1.00  0.00    -0.166 F 
HETATM   14  F   UNL     1       4.397 -46.943  27.358  1.00  0.00    -0.166 F 
ENDBRANCH   7  11
BRANCH   8  15
HETATM   15  C   UNL     1       2.978 -46.156  29.850  1.00  0.00     0.311 C 
BRANCH  15  16
HETATM   16  N   UNL     1       2.949 -45.359  31.075  1.00  0.00     0.096 N 
HETATM   17  C   UNL     1       3.800 -44.171  30.943  1.00  0.00     0.303 C 
HETATM   18  C   UNL     1       3.772 -43.334  32.229  1.00  0.00     0.302 C 
HETATM   19  N   UNL     1       4.189 -44.139  33.384  1.00  0.00     0.087 N 
HETATM   20  C   UNL     1       3.339 -45.328  33.514  1.00  0.00     0.302 C 
HETATM   21  C   UNL     1       4.159 -43.342  34.608  1.00  0.00     0.310 C 
HETATM   22  C   UNL     1       3.366 -46.163  32.229  1.00  0.00     0.303 C 
ENDBRANCH  15  16
ENDBRANCH   8  15
ENDBRANCH   2   5
BRANCH   3  23
HETATM   23  C   UNL     1      -1.262 -42.114  24.341  1.00  0.00     0.033 A 
HETATM   24  C   UNL     1      -2.622 -42.395  24.468  1.00  0.00     0.038 A 
HETATM   25  C   UNL     1      -3.496 -42.102  23.421  1.00  0.00     0.025 A 
HETATM   26  C   UNL     1      -3.010 -41.527  22.247  1.00  0.00    -0.043 A 
HETATM   27  C   UNL     1      -1.649 -41.246  22.120  1.00  0.00     0.009 A 
HETATM   28  C   UNL     1      -3.916 -41.198  21.104  1.00  0.00     0.049 C 
HETATM   29  C   UNL     1      -0.776 -41.540  23.167  1.00  0.00     0.017 A 
BRANCH  25  30
HETATM   30  C   UNL     1      -4.888 -42.401  23.575  1.00  0.00    -0.059 C 
HETATM   31  C   UNL     1      -6.056 -42.652  23.703  1.00  0.00    -0.040 C 
BRANCH  31  32
HETATM   32  C   UNL     1      -7.445 -42.952  23.856  1.00  0.00     0.131 A 
HETATM   33  N   UNL     1      -8.112 -43.128  25.040  1.00  0.00    -0.206 N 
HETATM   34  N   UNL     1      -7.561 -43.051  26.285  1.00  0.00    -0.177 NA
HETATM   35  C   UNL     1      -9.433 -43.398  24.728  1.00  0.00     0.151 A 
HETATM   36  C   UNL     1      -8.420 -43.261  27.232  1.00  0.00     0.139 A 
HETATM   37  C   UNL     1      -9.861 -43.560  27.062  1.00  0.00     0.025 A 
HETATM   38  C   UNL     1     -10.321 -43.619  25.807  1.00  0.00     0.054 A 
HETATM   39  N   UNL     1      -9.624 -43.398  23.423  1.00  0.00    -0.238 NA
HETATM   40  C   UNL     1      -8.396 -43.121  22.879  1.00  0.00     0.160 A 
ENDBRANCH  31  32
ENDBRANCH  25  30
ENDBRANCH   3  23
TORSDOF 7
ENDMDL
MODEL 3
REMARK VINA RESULT:      -7.9      1.207      1.826
REMARK  7 active torsions:
REMARK  status: ('A' for Active; 'I' for Inactive)
REMARK    1  A    between atoms: N_5  and  C_15 
REMARK    2  A    between atoms: N_7  and  C_22 
REMARK       I    between atoms: N_7  and  C_24 
REMARK    3  A    between atoms: C_15  and  C_16 
REMARK    4  A    between atoms: C_18  and  C_23 
REMARK    5  A    between atoms: C_24  and  C_25 
REMARK    6  A    between atoms: C_28  and  C_32 
REMARK    7  A    between atoms: C_33  and  C_35 
ROOT
HETATM    1  O   UNL     1      -2.101 -39.262  20.493  1.00  0.00    -0.267 OA
HETATM    2  N   UNL     1      -4.440 -39.451  20.360  1.00  0.00    -0.323 N 
HETATM    3  C   UNL     1      -3.169 -39.716  20.887  1.00  0.00     0.256 C 
HETATM    4  H   UNL     1      -5.245 -39.870  20.818  1.00  0.00     0.169 HD
ENDROOT
BRANCH   2   5
HETATM    5  C   UNL     1      -4.769 -38.623  19.287  1.00  0.00     0.035 A 
HETATM    6  C   UNL     1      -4.941 -37.254  19.490  1.00  0.00     0.046 A 
HETATM    7  C   UNL     1      -5.271 -36.425  18.416  1.00  0.00     0.058 A 
HETATM    8  C   UNL     1      -5.426 -36.966  17.141  1.00  0.00    -0.015 A 
HETATM    9  C   UNL     1      -5.253 -38.335  16.937  1.00  0.00     0.012 A 
HETATM   10  C   UNL     1      -4.925 -39.163  18.011  1.00  0.00     0.030 A 
BRANCH   7  11
HETATM   11  C   UNL     1      -5.448 -34.962  18.657  1.00  0.00     0.418 C 
HETATM   12  F   UNL     1      -5.024 -34.182  17.619  1.00  0.00    -0.166 F 
HETATM   13  F   UNL     1      -6.747 -34.598  18.870  1.00  0.00    -0.166 F 
HETATM   14  F   UNL     1      -4.760 -34.524  19.751  1.00  0.00    -0.166 F 
ENDBRANCH   7  11
BRANCH   8  15
HETATM   15  C   UNL     1      -5.780 -36.092  15.966  1.00  0.00     0.311 C 
BRANCH  15  16
HETATM   16  N   UNL     1      -5.646 -36.806  14.698  1.00  0.00     0.096 N 
HETATM   17  C   UNL     1      -4.473 -36.331  13.954  1.00  0.00     0.303 C 
HETATM   18  C   UNL     1      -4.332 -37.078  12.622  1.00  0.00     0.302 C 
HETATM   19  N   UNL     1      -5.547 -36.932  11.811  1.00  0.00     0.087 N 
HETATM   20  C   UNL     1      -6.721 -37.404  12.555  1.00  0.00     0.302 C 
HETATM   21  C   UNL     1      -5.413 -37.646  10.543  1.00  0.00     0.310 C 
HETATM   22  C   UNL     1      -6.860 -36.658  13.887  1.00  0.00     0.303 C 
ENDBRANCH  15  16
ENDBRANCH   8  15
ENDBRANCH   2   5
BRANCH   3  23
HETATM   23  C   UNL     1      -3.138 -40.671  22.025  1.00  0.00     0.033 A 
HETATM   24  C   UNL     1      -4.322 -41.025  22.673  1.00  0.00     0.038 A 
HETATM   25  C   UNL     1      -4.292 -41.922  23.740  1.00  0.00     0.025 A 
HETATM   26  C   UNL     1      -3.079 -42.466  24.161  1.00  0.00    -0.043 A 
HETATM   27  C   UNL     1      -1.895 -42.112  23.514  1.00  0.00     0.009 A 
HETATM   28  C   UNL     1      -3.008 -43.430  25.302  1.00  0.00     0.049 C 
HETATM   29  C   UNL     1      -1.925 -41.215  22.446  1.00  0.00     0.017 A 
BRANCH  25  30
HETATM   30  C   UNL     1      -5.520 -42.268  24.390  1.00  0.00    -0.059 C 
HETATM   31  C   UNL     1      -6.551 -42.559  24.934  1.00  0.00    -0.040 C 
BRANCH  31  32
HETATM   32  C   UNL     1      -7.777 -42.905  25.583  1.00  0.00     0.131 A 
HETATM   33  N   UNL     1      -7.945 -43.164  26.918  1.00  0.00    -0.206 N 
HETATM   34  N   UNL     1      -6.963 -43.140  27.864  1.00  0.00    -0.177 NA
HETATM   35  C   UNL     1      -9.284 -43.453  27.112  1.00  0.00     0.151 A 
HETATM   36  C   UNL     1      -7.398 -43.425  29.051  1.00  0.00     0.139 A 
HETATM   37  C   UNL     1      -8.795 -43.754  29.420  1.00  0.00     0.025 A 
HETATM   38  C   UNL     1      -9.695 -43.758  28.431  1.00  0.00     0.054 A 
HETATM   39  N   UNL     1      -9.955 -43.388  25.980  1.00  0.00    -0.238 NA
HETATM   40  C   UNL     1      -9.027 -43.048  25.029  1.00  0.00     0.160 A 
ENDBRANCH  31  32
ENDBRANCH  25  30
ENDBRANCH   3  23
TORSDOF 7
ENDMDL
MODEL 4
REMARK VINA RESULT:      -7.8      7.590     12.729
REMARK  7 active torsions:
REMARK  status: ('A' for Active; 'I' for Inactive)
REMARK    1  A    between atoms: N_5  and  C_15 
REMARK    2  A    between atoms: N_7  and  C_22 
REMARK       I    between atoms: N_7  and  C_24 
REMARK    3  A    between atoms: C_15  and  C_16 
REMARK    4  A    between atoms: C_18  and  C_23 
REMARK    5  A    between atoms: C_24  and  C_25 
REMARK    6  A    between atoms: C_28  and  C_32 
REMARK    7  A    between atoms: C_33  and  C_35 
ROOT
HETATM    1  O   UNL     1       1.432 -39.077  23.903  1.00  0.00    -0.267 OA
HETATM    2  N   UNL     1       0.746 -39.599  26.090  1.00  0.00    -0.323 N 
HETATM    3  C   UNL     1       1.569 -39.012  25.120  1.00  0.00     0.256 C 
HETATM    4  H   UNL     1       0.961 -39.425  27.068  1.00  0.00     0.169 HD
ENDROOT
BRANCH   2   5
HETATM    5  C   UNL     1      -0.395 -40.376  25.893  1.00  0.00     0.035 A 
HETATM    6  C   UNL     1      -0.369 -41.740  26.184  1.00  0.00     0.046 A 
HETATM    7  C   UNL     1      -1.510 -42.518  25.986  1.00  0.00     0.058 A 
HETATM    8  C   UNL     1      -2.677 -41.931  25.498  1.00  0.00    -0.015 A 
HETATM    9  C   UNL     1      -2.704 -40.567  25.207  1.00  0.00     0.012 A 
HETATM   10  C   UNL     1      -1.562 -39.790  25.404  1.00  0.00     0.030 A 
BRANCH   7  11
HETATM   11  C   UNL     1      -1.460 -43.976  26.307  1.00  0.00     0.418 C 
HETATM   12  F   UNL     1      -1.828 -44.266  27.590  1.00  0.00    -0.166 F 
HETATM   13  F   UNL     1      -2.276 -44.735  25.520  1.00  0.00    -0.166 F 
HETATM   14  F   UNL     1      -0.210 -44.501  26.156  1.00  0.00    -0.166 F 
ENDBRANCH   7  11
BRANCH   8  15
HETATM   15  C   UNL     1      -3.923 -42.750  25.277  1.00  0.00     0.311 C 
BRANCH  15  16
HETATM   16  N   UNL     1      -5.011 -42.332  26.159  1.00  0.00     0.096 N 
HETATM   17  C   UNL     1      -5.032 -43.144  27.381  1.00  0.00     0.303 C 
HETATM   18  C   UNL     1      -6.175 -42.708  28.306  1.00  0.00     0.302 C 
HETATM   19  N   UNL     1      -7.467 -42.790  27.614  1.00  0.00     0.087 N 
HETATM   20  C   UNL     1      -7.446 -41.981  26.390  1.00  0.00     0.302 C 
HETATM   21  C   UNL     1      -8.555 -42.372  28.495  1.00  0.00     0.310 C 
HETATM   22  C   UNL     1      -6.303 -42.416  25.466  1.00  0.00     0.303 C 
ENDBRANCH  15  16
ENDBRANCH   8  15
ENDBRANCH   2   5
BRANCH   3  23
HETATM   23  C   UNL     1       2.736 -38.258  25.646  1.00  0.00     0.033 A 
HETATM   24  C   UNL     1       2.892 -36.906  25.337  1.00  0.00     0.038 A 
HETATM   25  C   UNL     1       3.988 -36.199  25.832  1.00  0.00     0.025 A 
HETATM   26  C   UNL     1       4.928 -36.843  26.637  1.00  0.00    -0.043 A 
HETATM   27  C   UNL     1       4.772 -38.194  26.946  1.00  0.00     0.009 A 
HETATM   28  C   UNL     1       6.115 -36.118  27.186  1.00  0.00     0.049 C 
HETATM   29  C   UNL     1       3.676 -38.901  26.451  1.00  0.00     0.017 A 
BRANCH  25  30
HETATM   30  C   UNL     1       4.127 -34.814  25.500  1.00  0.00    -0.059 C 
HETATM   31  C   UNL     1       4.243 -33.651  25.221  1.00  0.00    -0.040 C 
BRANCH  31  32
HETATM   32  C   UNL     1       4.383 -32.267  24.890  1.00  0.00     0.131 A 
HETATM   33  N   UNL     1       4.066 -31.683  23.691  1.00  0.00    -0.206 N 
HETATM   34  N   UNL     1       3.561 -32.326  22.600  1.00  0.00    -0.177 NA
HETATM   35  C   UNL     1       4.356 -30.335  23.805  1.00  0.00     0.151 A 
HETATM   36  C   UNL     1       3.352 -31.533  21.597  1.00  0.00     0.139 A 
HETATM   37  C   UNL     1       3.609 -30.074  21.562  1.00  0.00     0.025 A 
HETATM   38  C   UNL     1       4.106 -29.522  22.675  1.00  0.00     0.054 A 
HETATM   39  N   UNL     1       4.832 -30.049  25.001  1.00  0.00    -0.238 NA
HETATM   40  C   UNL     1       4.850 -31.242  25.677  1.00  0.00     0.160 A 
ENDBRANCH  31  32
ENDBRANCH  25  30
ENDBRANCH   3  23
TORSDOF 7
ENDMDL
MODEL 5
REMARK VINA RESULT:      -7.5      2.558      3.387
REMARK  7 active torsions:
REMARK  status: ('A' for Active; 'I' for Inactive)
REMARK    1  A    between atoms: N_5  and  C_15 
REMARK    2  A    between atoms: N_7  and  C_22 
REMARK       I    between atoms: N_7  and  C_24 
REMARK    3  A    between atoms: C_15  and  C_16 
REMARK    4  A    between atoms: C_18  and  C_23 
REMARK    5  A    between atoms: C_24  and  C_25 
REMARK    6  A    between atoms: C_28  and  C_32 
REMARK    7  A    between atoms: C_33  and  C_35 
ROOT
HETATM    1  O   UNL     1      -2.261 -38.591  20.388  1.00  0.00    -0.267 OA
HETATM    2  N   UNL     1      -4.371 -39.567  20.036  1.00  0.00    -0.323 N 
HETATM    3  C   UNL     1      -3.222 -39.247  20.773  1.00  0.00     0.256 C 
HETATM    4  H   UNL     1      -5.108 -40.088  20.503  1.00  0.00     0.169 HD
ENDROOT
BRANCH   2   5
HETATM    5  C   UNL     1      -4.674 -39.213  18.722  1.00  0.00     0.035 A 
HETATM    6  C   UNL     1      -4.295 -40.047  17.670  1.00  0.00     0.046 A 
HETATM    7  C   UNL     1      -4.598 -39.694  16.354  1.00  0.00     0.058 A 
HETATM    8  C   UNL     1      -5.281 -38.506  16.092  1.00  0.00    -0.015 A 
HETATM    9  C   UNL     1      -5.660 -37.672  17.144  1.00  0.00     0.012 A 
HETATM   10  C   UNL     1      -5.356 -38.026  18.459  1.00  0.00     0.030 A 
BRANCH   7  11
HETATM   11  C   UNL     1      -4.185 -40.603  15.245  1.00  0.00     0.418 C 
HETATM   12  F   UNL     1      -5.220 -40.993  14.444  1.00  0.00    -0.166 F 
HETATM   13  F   UNL     1      -3.267 -40.049  14.400  1.00  0.00    -0.166 F 
HETATM   14  F   UNL     1      -3.617 -41.758  15.699  1.00  0.00    -0.166 F 
ENDBRANCH   7  11
BRANCH   8  15
HETATM   15  C   UNL     1      -5.620 -38.103  14.681  1.00  0.00     0.311 C 
BRANCH  15  16
HETATM   16  N   UNL     1      -5.961 -36.685  14.588  1.00  0.00     0.096 N 
HETATM   17  C   UNL     1      -6.875 -36.441  13.466  1.00  0.00     0.303 C 
HETATM   18  C   UNL     1      -7.232 -34.953  13.366  1.00  0.00     0.302 C 
HETATM   19  N   UNL     1      -6.021 -34.134  13.228  1.00  0.00     0.087 N 
HETATM   20  C   UNL     1      -5.106 -34.379  14.348  1.00  0.00     0.302 C 
HETATM   21  C   UNL     1      -6.362 -32.716  13.136  1.00  0.00     0.310 C 
HETATM   22  C   UNL     1      -4.750 -35.867  14.449  1.00  0.00     0.303 C 
ENDBRANCH  15  16
ENDBRANCH   8  15
ENDBRANCH   2   5
BRANCH   3  23
HETATM   23  C   UNL     1      -3.177 -39.797  22.153  1.00  0.00     0.033 A 
HETATM   24  C   UNL     1      -4.310 -40.396  22.704  1.00  0.00     0.038 A 
HETATM   25  C   UNL     1      -4.267 -40.912  23.999  1.00  0.00     0.025 A 
HETATM   26  C   UNL     1      -3.091 -40.830  24.744  1.00  0.00    -0.043 A 
HETATM   27  C   UNL     1      -1.958 -40.231  24.193  1.00  0.00     0.009 A 
HETATM   28  C   UNL     1      -3.007 -41.372  26.135  1.00  0.00     0.049 C 
HETATM   29  C   UNL     1      -2.001 -39.715  22.898  1.00  0.00     0.017 A 
BRANCH  25  30
HETATM   30  C   UNL     1      -5.443 -41.520  24.542  1.00  0.00    -0.059 C 
HETATM   31  C   UNL     1      -6.431 -42.031  24.998  1.00  0.00    -0.040 C 
BRANCH  31  32
HETATM   32  C   UNL     1      -7.605 -42.639  25.540  1.00  0.00     0.131 A 
HETATM   33  N   UNL     1      -7.799 -43.011  26.845  1.00  0.00    -0.206 N 
HETATM   34  N   UNL     1      -6.897 -42.866  27.857  1.00  0.00    -0.177 NA
HETATM   35  C   UNL     1      -9.068 -43.555  26.930  1.00  0.00     0.151 A 
HETATM   36  C   UNL     1      -7.338 -43.304  28.995  1.00  0.00     0.139 A 
HETATM   37  C   UNL     1      -8.667 -43.909  29.248  1.00  0.00     0.025 A 
HETATM   38  C   UNL     1      -9.491 -44.015  28.199  1.00  0.00     0.054 A 
HETATM   39  N   UNL     1      -9.673 -43.542  25.759  1.00  0.00    -0.238 NA
HETATM   40  C   UNL     1      -8.771 -42.975  24.894  1.00  0.00     0.160 A 
ENDBRANCH  31  32
ENDBRANCH  25  30
ENDBRANCH   3  23
TORSDOF 7
ENDMDL
MODEL 6
REMARK VINA RESULT:      -7.5      3.114      4.165
REMARK  7 active torsions:
REMARK  status: ('A' for Active; 'I' for Inactive)
REMARK    1  A    between atoms: N_5  and  C_15 
REMARK    2  A    between atoms: N_7  and  C_22 
REMARK       I    between atoms: N_7  and  C_24 
REMARK    3  A    between atoms: C_15  and  C_16 
REMARK    4  A    between atoms: C_18  and  C_23 
REMARK    5  A    between atoms: C_24  and  C_25 
REMARK    6  A    between atoms: C_28  and  C_32 
REMARK    7  A    between atoms: C_33  and  C_35 
ROOT
HETATM    1  O   UNL     1      -5.465 -38.132  19.160  1.00  0.00    -0.267 OA
HETATM    2  N   UNL     1      -3.598 -39.117  18.127  1.00  0.00    -0.323 N 
HETATM    3  C   UNL     1      -4.410 -38.753  19.209  1.00  0.00     0.256 C 
HETATM    4  H   UNL     1      -2.767 -39.670  18.317  1.00  0.00     0.169 HD
ENDROOT
BRANCH   2   5
HETATM    5  C   UNL     1      -3.805 -38.857  16.772  1.00  0.00     0.035 A 
HETATM    6  C   UNL     1      -3.992 -39.913  15.880  1.00  0.00     0.046 A 
HETATM    7  C   UNL     1      -4.199 -39.654  14.524  1.00  0.00     0.058 A 
HETATM    8  C   UNL     1      -4.222 -38.339  14.063  1.00  0.00    -0.015 A 
HETATM    9  C   UNL     1      -4.037 -37.282  14.955  1.00  0.00     0.012 A 
HETATM   10  C   UNL     1      -3.828 -37.542  16.309  1.00  0.00     0.030 A 
BRANCH   7  11
HETATM   11  C   UNL     1      -4.398 -40.800  13.589  1.00  0.00     0.418 C 
HETATM   12  F   UNL     1      -5.469 -40.646  12.756  1.00  0.00    -0.166 F 
HETATM   13  F   UNL     1      -3.333 -41.022  12.764  1.00  0.00    -0.166 F 
HETATM   14  F   UNL     1      -4.608 -41.979  14.242  1.00  0.00    -0.166 F 
ENDBRANCH   7  11
BRANCH   8  15
HETATM   15  C   UNL     1      -4.446 -38.033  12.605  1.00  0.00     0.311 C 
BRANCH  15  16
HETATM   16  N   UNL     1      -5.624 -37.192  12.400  1.00  0.00     0.096 N 
HETATM   17  C   UNL     1      -6.644 -37.904  11.621  1.00  0.00     0.303 C 
HETATM   18  C   UNL     1      -7.879 -37.021  11.404  1.00  0.00     0.302 C 
HETATM   19  N   UNL     1      -7.512 -35.764  10.741  1.00  0.00     0.087 N 
HETATM   20  C   UNL     1      -6.491 -35.053  11.519  1.00  0.00     0.302 C 
HETATM   21  C   UNL     1      -8.690 -34.922  10.537  1.00  0.00     0.310 C 
HETATM   22  C   UNL     1      -5.256 -35.935  11.736  1.00  0.00     0.303 C 
ENDBRANCH  15  16
ENDBRANCH   8  15
ENDBRANCH   2   5
BRANCH   3  23
HETATM   23  C   UNL     1      -3.904 -39.153  20.548  1.00  0.00     0.033 A 
HETATM   24  C   UNL     1      -4.775 -39.700  21.490  1.00  0.00     0.038 A 
HETATM   25  C   UNL     1      -4.299 -40.076  22.746  1.00  0.00     0.025 A 
HETATM   26  C   UNL     1      -2.951 -39.905  23.060  1.00  0.00    -0.043 A 
HETATM   27  C   UNL     1      -2.079 -39.359  22.118  1.00  0.00     0.009 A 
HETATM   28  C   UNL     1      -2.404 -40.297  24.396  1.00  0.00     0.049 C 
HETATM   29  C   UNL     1      -2.556 -38.983  20.863  1.00  0.00     0.017 A 
BRANCH  25  30
HETATM   30  C   UNL     1      -5.213 -40.634  23.696  1.00  0.00    -0.059 C 
HETATM   31  C   UNL     1      -5.980 -41.102  24.493  1.00  0.00    -0.040 C 
BRANCH  31  32
HETATM   32  C   UNL     1      -6.893 -41.659  25.442  1.00  0.00     0.131 A 
HETATM   33  N   UNL     1      -8.033 -42.364  25.157  1.00  0.00    -0.206 N 
HETATM   34  N   UNL     1      -8.498 -42.656  23.908  1.00  0.00    -0.177 NA
HETATM   35  C   UNL     1      -8.610 -42.713  26.365  1.00  0.00     0.151 A 
HETATM   36  C   UNL     1      -9.601 -43.336  23.925  1.00  0.00     0.139 A 
HETATM   37  C   UNL     1     -10.337 -43.785  25.131  1.00  0.00     0.025 A 
HETATM   38  C   UNL     1      -9.813 -43.455  26.316  1.00  0.00     0.054 A 
HETATM   39  N   UNL     1      -7.897 -42.269  27.380  1.00  0.00    -0.238 NA
HETATM   40  C   UNL     1      -6.831 -41.615  26.814  1.00  0.00     0.160 A 
ENDBRANCH  31  32
ENDBRANCH  25  30
ENDBRANCH   3  23
TORSDOF 7
ENDMDL
MODEL 7
REMARK VINA RESULT:      -7.3      2.455      3.087
REMARK  7 active torsions:
REMARK  status: ('A' for Active; 'I' for Inactive)
REMARK    1  A    between atoms: N_5  and  C_15 
REMARK    2  A    between atoms: N_7  and  C_22 
REMARK       I    between atoms: N_7  and  C_24 
REMARK    3  A    between atoms: C_15  and  C_16 
REMARK    4  A    between atoms: C_18  and  C_23 
REMARK    5  A    between atoms: C_24  and  C_25 
REMARK    6  A    between atoms: C_28  and  C_32 
REMARK    7  A    between atoms: C_33  and  C_35 
ROOT
HETATM    1  O   UNL     1      -1.406 -38.655  20.409  1.00  0.00    -0.267 OA
HETATM    2  N   UNL     1      -3.637 -39.313  20.071  1.00  0.00    -0.323 N 
HETATM    3  C   UNL     1      -2.397 -39.306  20.722  1.00  0.00     0.256 C 
HETATM    4  H   UNL     1      -4.384 -39.876  20.470  1.00  0.00     0.169 HD
ENDROOT
BRANCH   2   5
HETATM    5  C   UNL     1      -4.017 -38.591  18.939  1.00  0.00     0.035 A 
HETATM    6  C   UNL     1      -3.819 -39.131  17.668  1.00  0.00     0.046 A 
HETATM    7  C   UNL     1      -4.199 -38.408  16.536  1.00  0.00     0.058 A 
HETATM    8  C   UNL     1      -4.778 -37.148  16.677  1.00  0.00    -0.015 A 
HETATM    9  C   UNL     1      -4.977 -36.608  17.947  1.00  0.00     0.012 A 
HETATM   10  C   UNL     1      -4.596 -37.330  19.079  1.00  0.00     0.030 A 
BRANCH   7  11
HETATM   11  C   UNL     1      -3.979 -39.007  15.186  1.00  0.00     0.418 C 
HETATM   12  F   UNL     1      -5.119 -39.106  14.440  1.00  0.00    -0.166 F 
HETATM   13  F   UNL     1      -3.106 -38.299  14.412  1.00  0.00    -0.166 F 
HETATM   14  F   UNL     1      -3.471 -40.271  15.251  1.00  0.00    -0.166 F 
ENDBRANCH   7  11
BRANCH   8  15
HETATM   15  C   UNL     1      -5.198 -36.349  15.470  1.00  0.00     0.311 C 
BRANCH  15  16
HETATM   16  N   UNL     1      -4.574 -35.028  15.449  1.00  0.00     0.096 N 
HETATM   17  C   UNL     1      -5.268 -34.139  14.510  1.00  0.00     0.303 C 
HETATM   18  C   UNL     1      -4.612 -32.752  14.485  1.00  0.00     0.302 C 
HETATM   19  N   UNL     1      -3.190 -32.854  14.140  1.00  0.00     0.087 N 
HETATM   20  C   UNL     1      -2.496 -33.744  15.077  1.00  0.00     0.302 C 
HETATM   21  C   UNL     1      -2.566 -31.532  14.119  1.00  0.00     0.310 C 
HETATM   22  C   UNL     1      -3.151 -35.130  15.102  1.00  0.00     0.303 C 
ENDBRANCH  15  16
ENDBRANCH   8  15
ENDBRANCH   2   5
BRANCH   3  23
HETATM   23  C   UNL     1      -2.288 -40.211  21.896  1.00  0.00     0.033 A 
HETATM   24  C   UNL     1      -3.432 -40.565  22.613  1.00  0.00     0.038 A 
HETATM   25  C   UNL     1      -3.329 -41.415  23.714  1.00  0.00     0.025 A 
HETATM   26  C   UNL     1      -2.084 -41.912  24.098  1.00  0.00    -0.043 A 
HETATM   27  C   UNL     1      -0.941 -41.559  23.381  1.00  0.00     0.009 A 
HETATM   28  C   UNL     1      -1.936 -42.826  25.273  1.00  0.00     0.049 C 
HETATM   29  C   UNL     1      -1.043 -40.709  22.280  1.00  0.00     0.017 A 
BRANCH  25  30
HETATM   30  C   UNL     1      -4.517 -41.761  24.435  1.00  0.00    -0.059 C 
HETATM   31  C   UNL     1      -5.514 -42.052  25.039  1.00  0.00    -0.040 C 
BRANCH  31  32
HETATM   32  C   UNL     1      -6.700 -42.399  25.759  1.00  0.00     0.131 A 
HETATM   33  N   UNL     1      -7.854 -42.910  25.225  1.00  0.00    -0.206 N 
HETATM   34  N   UNL     1      -8.072 -43.175  23.906  1.00  0.00    -0.177 NA
HETATM   35  C   UNL     1      -8.738 -43.098  26.272  1.00  0.00     0.151 A 
HETATM   36  C   UNL     1      -9.254 -43.654  23.675  1.00  0.00     0.139 A 
HETATM   37  C   UNL     1     -10.309 -43.913  24.683  1.00  0.00     0.025 A 
HETATM   38  C   UNL     1     -10.013 -43.623  25.955  1.00  0.00     0.054 A 
HETATM   39  N   UNL     1      -8.203 -42.736  27.421  1.00  0.00    -0.238 NA
HETATM   40  C   UNL     1      -6.939 -42.302  27.109  1.00  0.00     0.160 A 
ENDBRANCH  31  32
ENDBRANCH  25  30
ENDBRANCH   3  23
TORSDOF 7
ENDMDL
MODEL 8
REMARK VINA RESULT:      -7.1      3.866      5.689
REMARK  7 active torsions:
REMARK  status: ('A' for Active; 'I' for Inactive)
REMARK    1  A    between atoms: N_5  and  C_15 
REMARK    2  A    between atoms: N_7  and  C_22 
REMARK       I    between atoms: N_7  and  C_24 
REMARK    3  A    between atoms: C_15  and  C_16 
REMARK    4  A    between atoms: C_18  and  C_23 
REMARK    5  A    between atoms: C_24  and  C_25 
REMARK    6  A    between atoms: C_28  and  C_32 
REMARK    7  A    between atoms: C_33  and  C_35 
ROOT
HETATM    1  O   UNL     1      -3.812 -42.139  21.032  1.00  0.00    -0.267 OA
HETATM    2  N   UNL     1      -3.692 -39.963  21.914  1.00  0.00    -0.323 N 
HETATM    3  C   UNL     1      -3.768 -41.361  21.978  1.00  0.00     0.256 C 
HETATM    4  H   UNL     1      -3.621 -39.447  22.786  1.00  0.00     0.169 HD
ENDROOT
BRANCH   2   5
HETATM    5  C   UNL     1      -3.648 -39.157  20.776  1.00  0.00     0.035 A 
HETATM    6  C   UNL     1      -4.734 -38.341  20.457  1.00  0.00     0.046 A 
HETATM    7  C   UNL     1      -4.691 -37.535  19.319  1.00  0.00     0.058 A 
HETATM    8  C   UNL     1      -3.561 -37.544  18.501  1.00  0.00    -0.015 A 
HETATM    9  C   UNL     1      -2.475 -38.359  18.820  1.00  0.00     0.012 A 
HETATM   10  C   UNL     1      -2.519 -39.166  19.958  1.00  0.00     0.030 A 
BRANCH   7  11
HETATM   11  C   UNL     1      -5.864 -36.669  18.998  1.00  0.00     0.418 C 
HETATM   12  F   UNL     1      -6.477 -36.992  17.821  1.00  0.00    -0.166 F 
HETATM   13  F   UNL     1      -6.850 -36.717  19.940  1.00  0.00    -0.166 F 
HETATM   14  F   UNL     1      -5.527 -35.352  18.886  1.00  0.00    -0.166 F 
ENDBRANCH   7  11
BRANCH   8  15
HETATM   15  C   UNL     1      -3.490 -36.682  17.268  1.00  0.00     0.311 C 
BRANCH  15  16
HETATM   16  N   UNL     1      -2.283 -35.858  17.250  1.00  0.00     0.096 N 
HETATM   17  C   UNL     1      -2.627 -34.431  17.256  1.00  0.00     0.303 C 
HETATM   18  C   UNL     1      -1.361 -33.565  17.235  1.00  0.00     0.302 C 
HETATM   19  N   UNL     1      -0.528 -33.887  16.070  1.00  0.00     0.087 N 
HETATM   20  C   UNL     1      -0.186 -35.314  16.062  1.00  0.00     0.302 C 
HETATM   21  C   UNL     1       0.679 -33.063  16.052  1.00  0.00     0.310 C 
HETATM   22  C   UNL     1      -1.451 -36.179  16.084  1.00  0.00     0.303 C 
ENDBRANCH  15  16
ENDBRANCH   8  15
ENDBRANCH   2   5
BRANCH   3  23
HETATM   23  C   UNL     1      -3.827 -41.932  23.349  1.00  0.00     0.033 A 
HETATM   24  C   UNL     1      -2.681 -42.479  23.927  1.00  0.00     0.038 A 
HETATM   25  C   UNL     1      -2.736 -43.014  25.214  1.00  0.00     0.025 A 
HETATM   26  C   UNL     1      -3.937 -43.004  25.923  1.00  0.00    -0.043 A 
HETATM   27  C   UNL     1      -5.083 -42.457  25.345  1.00  0.00     0.009 A 
HETATM   28  C   UNL     1      -4.035 -43.569  27.304  1.00  0.00     0.049 C 
HETATM   29  C   UNL     1      -5.028 -41.922  24.058  1.00  0.00     0.017 A 
BRANCH  25  30
HETATM   30  C   UNL     1      -1.547 -43.571  25.785  1.00  0.00    -0.059 C 
HETATM   31  C   UNL     1      -0.549 -44.038  26.264  1.00  0.00    -0.040 C 
BRANCH  31  32
HETATM   32  C   UNL     1       0.638 -44.593  26.834  1.00  0.00     0.131 A 
HETATM   33  N   UNL     1       0.798 -45.014  28.128  1.00  0.00    -0.206 N 
HETATM   34  N   UNL     1      -0.154 -44.972  29.103  1.00  0.00    -0.177 NA
HETATM   35  C   UNL     1       2.096 -45.479  28.248  1.00  0.00     0.151 A 
HETATM   36  C   UNL     1       0.265 -45.434  30.240  1.00  0.00     0.139 A 
HETATM   37  C   UNL     1       1.618 -45.966  30.527  1.00  0.00     0.025 A 
HETATM   38  C   UNL     1       2.493 -45.969  29.515  1.00  0.00     0.054 A 
HETATM   39  N   UNL     1       2.749 -45.373  27.108  1.00  0.00    -0.238 NA
HETATM   40  C   UNL     1       1.850 -44.826  26.228  1.00  0.00     0.160 A 
ENDBRANCH  31  32
ENDBRANCH  25  30
ENDBRANCH   3  23
TORSDOF 7
ENDMDL
MODEL 9
REMARK VINA RESULT:      -7.1      5.379     11.713
REMARK  7 active torsions:
REMARK  status: ('A' for Active; 'I' for Inactive)
REMARK    1  A    between atoms: N_5  and  C_15 
REMARK    2  A    between atoms: N_7  and  C_22 
REMARK       I    between atoms: N_7  and  C_24 
REMARK    3  A    between atoms: C_15  and  C_16 
REMARK    4  A    between atoms: C_18  and  C_23 
REMARK    5  A    between atoms: C_24  and  C_25 
REMARK    6  A    between atoms: C_28  and  C_32 
REMARK    7  A    between atoms: C_33  and  C_35 
ROOT
HETATM    1  O   UNL     1      -1.896 -39.364  24.248  1.00  0.00    -0.267 OA
HETATM    2  N   UNL     1      -2.405 -41.569  24.883  1.00  0.00    -0.323 N 
HETATM    3  C   UNL     1      -1.593 -40.545  24.378  1.00  0.00     0.256 C 
HETATM    4  H   UNL     1      -2.003 -42.499  24.971  1.00  0.00     0.169 HD
ENDROOT
BRANCH   2   5
HETATM    5  C   UNL     1      -3.718 -41.476  25.346  1.00  0.00     0.035 A 
HETATM    6  C   UNL     1      -4.766 -41.313  24.440  1.00  0.00     0.046 A 
HETATM    7  C   UNL     1      -6.080 -41.219  24.902  1.00  0.00     0.058 A 
HETATM    8  C   UNL     1      -6.343 -41.289  26.270  1.00  0.00    -0.015 A 
HETATM    9  C   UNL     1      -5.295 -41.453  27.175  1.00  0.00     0.012 A 
HETATM   10  C   UNL     1      -3.982 -41.546  26.713  1.00  0.00     0.030 A 
BRANCH   7  11
HETATM   11  C   UNL     1      -7.186 -41.048  23.914  1.00  0.00     0.418 C 
HETATM   12  F   UNL     1      -6.797 -41.241  22.620  1.00  0.00    -0.166 F 
HETATM   13  F   UNL     1      -8.227 -41.909  24.107  1.00  0.00    -0.166 F 
HETATM   14  F   UNL     1      -7.731 -39.797  23.951  1.00  0.00    -0.166 F 
ENDBRANCH   7  11
BRANCH   8  15
HETATM   15  C   UNL     1      -7.753 -41.192  26.793  1.00  0.00     0.311 C 
BRANCH  15  16
HETATM   16  N   UNL     1      -8.056 -42.263  27.740  1.00  0.00     0.096 N 
HETATM   17  C   UNL     1      -8.273 -43.534  27.039  1.00  0.00     0.303 C 
HETATM   18  C   UNL     1      -8.593 -44.657  28.032  1.00  0.00     0.302 C 
HETATM   19  N   UNL     1      -9.765 -44.315  28.847  1.00  0.00     0.087 N 
HETATM   20  C   UNL     1      -9.550 -43.043  29.547  1.00  0.00     0.302 C 
HETATM   21  C   UNL     1     -10.068 -45.385  29.795  1.00  0.00     0.310 C 
HETATM   22  C   UNL     1      -9.229 -41.920  28.554  1.00  0.00     0.303 C 
ENDBRANCH  15  16
ENDBRANCH   8  15
ENDBRANCH   2   5
BRANCH   3  23
HETATM   23  C   UNL     1      -0.238 -40.966  23.936  1.00  0.00     0.033 A 
HETATM   24  C   UNL     1       0.136 -40.824  22.600  1.00  0.00     0.038 A 
HETATM   25  C   UNL     1       1.409 -41.218  22.186  1.00  0.00     0.025 A 
HETATM   26  C   UNL     1       2.308 -41.754  23.109  1.00  0.00    -0.043 A 
HETATM   27  C   UNL     1       1.933 -41.896  24.445  1.00  0.00     0.009 A 
HETATM   28  C   UNL     1       3.680 -42.187  22.702  1.00  0.00     0.049 C 
HETATM   29  C   UNL     1       0.660 -41.502  24.858  1.00  0.00     0.017 A 
BRANCH  25  30
HETATM   30  C   UNL     1       1.769 -41.063  20.810  1.00  0.00    -0.059 C 
HETATM   31  C   UNL     1       2.071 -40.933  19.654  1.00  0.00    -0.040 C 
BRANCH  31  32
HETATM   32  C   UNL     1       2.431 -40.778  18.279  1.00  0.00     0.131 A 
HETATM   33  N   UNL     1       3.682 -40.934  17.744  1.00  0.00    -0.206 N 
HETATM   34  N   UNL     1       4.810 -41.264  18.436  1.00  0.00    -0.177 NA
HETATM   35  C   UNL     1       3.578 -40.693  16.385  1.00  0.00     0.151 A 
HETATM   36  C   UNL     1       5.861 -41.346  17.683  1.00  0.00     0.139 A 
HETATM   37  C   UNL     1       5.913 -41.118  16.219  1.00  0.00     0.025 A 
HETATM   38  C   UNL     1       4.762 -40.797  15.617  1.00  0.00     0.054 A 
HETATM   39  N   UNL     1       2.339 -40.398  16.047  1.00  0.00    -0.238 NA
HETATM   40  C   UNL     1       1.623 -40.451  17.216  1.00  0.00     0.160 A 
ENDBRANCH  31  32
ENDBRANCH  25  30
ENDBRANCH   3  23
TORSDOF 7
ENDMDL
