MODEL 1
REMARK VINA RESULT:      -6.9      0.000      0.000
REMARK  2 active torsions:
REMARK  status: ('A' for Active; 'I' for Inactive)
REMARK    1  A    between atoms: C4_4  and  C7_7 
REMARK    2  A    between atoms: C5_5  and  C15_15 
ROOT
HETATM    1  N1    D T1240      91.780  10.085  37.999  1.00 25.62    -0.194 NA
HETATM    2  C2    D T1240      91.667   8.709  37.951  1.00 23.58     0.239 A 
HETATM    3  C3    D T1240      91.305  10.855  36.903  1.00 22.29     0.187 A 
HETATM    4  C4    D T1240      90.704  10.230  35.693  1.00 21.48     0.051 A 
HETATM    5  C5    D T1240      90.632   8.728  35.795  1.00 26.18     0.065 A 
HETATM    6  N6    D T1240      91.094   8.029  36.880  1.00 28.81    -0.219 NA
HETATM    7  N13   D T1240      91.399  12.184  36.937  1.00 22.31    -0.127 N 
HETATM    8  N14   D T1240      92.155   7.947  39.020  1.00 25.45    -0.060 NA
ENDROOT
BRANCH   4   9
HETATM    9  C7    D T1240      90.237  11.001  34.532  1.00 23.16     0.000 A 
HETATM   10  C8    D T1240      91.124  11.315  33.402  1.00 23.74     0.000 A 
HETATM   11  C9    D T1240      90.692  12.055  32.242  1.00 22.05     0.007 A 
HETATM   12  C10   D T1240      89.383  12.505  32.165  1.00 28.58     0.040 A 
HETATM   13  C11   D T1240      88.439  12.216  33.264  1.00 23.69     0.064 A 
HETATM   14 CL1    D T1240      88.812  13.377  30.886  1.00  5.79    -0.087 Cl
HETATM   15  C12   D T1240      88.892  11.473  34.413  1.00 23.56    -0.020 A 
ENDBRANCH   4   9
BRANCH   5  16
HETATM   16  C15   D T1240      90.027   7.928  34.665  1.00 31.62     0.046 C 
HETATM   17  C16   D T1240      90.479   6.477  34.581  1.00 31.37     0.007 C 
ENDBRANCH   5  16
TORSDOF 2
ENDMDL
MODEL 2
REMARK VINA RESULT:      -6.8      3.699      6.128
REMARK  2 active torsions:
REMARK  status: ('A' for Active; 'I' for Inactive)
REMARK    1  A    between atoms: C4_4  and  C7_7 
REMARK    2  A    between atoms: C5_5  and  C15_15 
ROOT
HETATM    1  N1    D T1240      90.822  10.806  32.483  1.00 25.62    -0.194 NA
HETATM    2  C2    D T1240      90.049  11.938  32.658  1.00 23.58     0.239 A 
HETATM    3  C3    D T1240      91.048   9.947  33.592  1.00 22.29     0.187 A 
HETATM    4  C4    D T1240      90.494  10.233  34.946  1.00 21.48     0.051 A 
HETATM    5  C5    D T1240      89.661  11.488  34.975  1.00 26.18     0.065 A 
HETATM    6  N6    D T1240      89.463  12.279  33.873  1.00 28.81    -0.219 NA
HETATM    7  N13   D T1240      91.783   8.846  33.440  1.00 22.31    -0.127 N 
HETATM    8  N14   D T1240      89.844  12.798  31.571  1.00 25.45    -0.060 NA
ENDROOT
BRANCH   4   9
HETATM    9  C7    D T1240      90.742   9.378  36.117  1.00 23.16     0.000 A 
HETATM   10  C8    D T1240      90.032   8.105  36.310  1.00 23.74     0.000 A 
HETATM   11  C9    D T1240      90.265   7.238  37.439  1.00 22.05     0.007 A 
HETATM   12  C10   D T1240      91.195   7.599  38.402  1.00 28.58     0.040 A 
HETATM   13  C11   D T1240      91.947   8.862  38.261  1.00 23.69     0.064 A 
HETATM   14 CL1    D T1240      91.506   6.678  39.733  1.00  5.79    -0.087 Cl
HETATM   15  C12   D T1240      91.700   9.713  37.123  1.00 23.56    -0.020 A 
ENDBRANCH   4   9
BRANCH   5  16
HETATM   16  C15   D T1240      89.000  11.918  36.263  1.00 31.62     0.046 C 
HETATM   17  C16   D T1240      87.627  12.556  36.107  1.00 31.37     0.007 C 
ENDBRANCH   5  16
TORSDOF 2
ENDMDL
MODEL 3
REMARK VINA RESULT:      -6.8      1.216      2.994
REMARK  2 active torsions:
REMARK  status: ('A' for Active; 'I' for Inactive)
REMARK    1  A    between atoms: C4_4  and  C7_7 
REMARK    2  A    between atoms: C5_5  and  C15_15 
ROOT
HETATM    1  N1    D T1240      91.161   8.076  36.176  1.00 25.62    -0.194 NA
HETATM    2  C2    D T1240      91.406   8.704  37.382  1.00 23.58     0.239 A 
HETATM    3  C3    D T1240      90.824   8.865  35.043  1.00 22.29     0.187 A 
HETATM    4  C4    D T1240      90.707  10.349  35.114  1.00 21.48     0.051 A 
HETATM    5  C5    D T1240      91.020  10.888  36.486  1.00 26.18     0.065 A 
HETATM    6  N6    D T1240      91.352  10.085  37.546  1.00 28.81    -0.219 NA
HETATM    7  N13   D T1240      90.593   8.277  33.870  1.00 22.31    -0.127 N 
HETATM    8  N14   D T1240      91.716   7.926  38.505  1.00 25.45    -0.060 NA
ENDROOT
BRANCH   4   9
HETATM    9  C7    D T1240      90.327  11.185  33.965  1.00 23.16     0.000 A 
HETATM   10  C8    D T1240      88.919  11.438  33.624  1.00 23.74     0.000 A 
HETATM   11  C9    D T1240      88.514  12.266  32.515  1.00 22.05     0.007 A 
HETATM   12  C10   D T1240      89.478  12.862  31.716  1.00 28.58     0.040 A 
HETATM   13  C11   D T1240      90.910  12.654  32.011  1.00 23.69     0.064 A 
HETATM   14 CL1    D T1240      89.102  13.805  30.417  1.00  5.79    -0.087 Cl
HETATM   15  C12   D T1240      91.292  11.823  33.126  1.00 23.56    -0.020 A 
ENDBRANCH   4   9
BRANCH   5  16
HETATM   16  C15   D T1240      90.976  12.377  36.734  1.00 31.62     0.046 C 
HETATM   17  C16   D T1240      89.636  12.916  37.213  1.00 31.37     0.007 C 
ENDBRANCH   5  16
TORSDOF 2
ENDMDL
MODEL 4
REMARK VINA RESULT:      -6.7      5.061      7.077
REMARK  2 active torsions:
REMARK  status: ('A' for Active; 'I' for Inactive)
REMARK    1  A    between atoms: C4_4  and  C7_7 
REMARK    2  A    between atoms: C5_5  and  C15_15 
ROOT
HETATM    1  N1    D T1240      93.703   2.729  39.971  1.00 25.62    -0.194 NA
HETATM    2  C2    D T1240      92.736   1.839  40.399  1.00 23.58     0.239 A 
HETATM    3  C3    D T1240      93.322   3.807  39.127  1.00 22.29     0.187 A 
HETATM    4  C4    D T1240      91.917   4.002  38.671  1.00 21.48     0.051 A 
HETATM    5  C5    D T1240      90.979   2.965  39.233  1.00 26.18     0.065 A 
HETATM    6  N6    D T1240      91.393   1.949  40.054  1.00 28.81    -0.219 NA
HETATM    7  N13   D T1240      94.239   4.680  38.712  1.00 22.31    -0.127 N 
HETATM    8  N14   D T1240      93.114   0.763  41.213  1.00 25.45    -0.060 NA
ENDROOT
BRANCH   4   9
HETATM    9  C7    D T1240      91.504   5.088  37.770  1.00 23.16     0.000 A 
HETATM   10  C8    D T1240      91.590   4.957  36.308  1.00 23.74     0.000 A 
HETATM   11  C9    D T1240      91.177   5.997  35.398  1.00 22.05     0.007 A 
HETATM   12  C10   D T1240      90.672   7.187  35.900  1.00 28.58     0.040 A 
HETATM   13  C11   D T1240      90.552   7.378  37.359  1.00 23.69     0.064 A 
HETATM   14 CL1    D T1240      90.199   8.435  34.932  1.00  5.79    -0.087 Cl
HETATM   15  C12   D T1240      90.970   6.324  38.251  1.00 23.56    -0.020 A 
ENDBRANCH   4   9
BRANCH   5  16
HETATM   16  C15   D T1240      89.508   3.024  38.894  1.00 31.62     0.046 C 
HETATM   17  C16   D T1240      88.658   1.913  39.495  1.00 31.37     0.007 C 
ENDBRANCH   5  16
TORSDOF 2
ENDMDL
MODEL 5
REMARK VINA RESULT:      -6.6      3.864      6.505
REMARK  2 active torsions:
REMARK  status: ('A' for Active; 'I' for Inactive)
REMARK    1  A    between atoms: C4_4  and  C7_7 
REMARK    2  A    between atoms: C5_5  and  C15_15 
ROOT
HETATM    1  N1    D T1240      89.813   9.729  33.917  1.00 25.62    -0.194 NA
HETATM    2  C2    D T1240      89.991  11.032  34.342  1.00 23.58     0.239 A 
HETATM    3  C3    D T1240      90.230   8.665  34.761  1.00 22.29     0.187 A 
HETATM    4  C4    D T1240      90.871   8.905  36.085  1.00 21.48     0.051 A 
HETATM    5  C5    D T1240      90.979  10.371  36.416  1.00 26.18     0.065 A 
HETATM    6  N6    D T1240      90.551  11.362  35.572  1.00 28.81    -0.219 NA
HETATM    7  N13   D T1240      90.058   7.403  34.371  1.00 22.31    -0.127 N 
HETATM    8  N14   D T1240      89.600  12.083  33.501  1.00 25.45    -0.060 NA
ENDROOT
BRANCH   4   9
HETATM    9  C7    D T1240      91.342   7.823  36.961  1.00 23.16     0.000 A 
HETATM   10  C8    D T1240      92.742   7.373  36.952  1.00 23.74     0.000 A 
HETATM   11  C9    D T1240      93.239   6.327  37.811  1.00 22.05     0.007 A 
HETATM   12  C10   D T1240      92.376   5.697  38.696  1.00 28.58     0.040 A 
HETATM   13  C11   D T1240      90.959   6.109  38.759  1.00 23.69     0.064 A 
HETATM   14 CL1    D T1240      92.856   4.478  39.697  1.00  5.79    -0.087 Cl
HETATM   15  C12   D T1240      90.484   7.159  37.892  1.00 23.56    -0.020 A 
ENDBRANCH   4   9
BRANCH   5  16
HETATM   16  C15   D T1240      91.583  10.798  37.733  1.00 31.62     0.046 C 
HETATM   17  C16   D T1240      91.750  12.300  37.915  1.00 31.37     0.007 C 
ENDBRANCH   5  16
TORSDOF 2
ENDMDL
MODEL 6
REMARK VINA RESULT:      -6.6      3.991      6.163
REMARK  2 active torsions:
REMARK  status: ('A' for Active; 'I' for Inactive)
REMARK    1  A    between atoms: C4_4  and  C7_7 
REMARK    2  A    between atoms: C5_5  and  C15_15 
ROOT
HETATM    1  N1    D T1240      91.343  11.608  37.127  1.00 25.62    -0.194 NA
HETATM    2  C2    D T1240      90.367  11.566  36.149  1.00 23.58     0.239 A 
HETATM    3  C3    D T1240      91.824  10.389  37.675  1.00 22.29     0.187 A 
HETATM    4  C4    D T1240      91.300   9.062  37.245  1.00 21.48     0.051 A 
HETATM    5  C5    D T1240      90.257   9.177  36.163  1.00 26.18     0.065 A 
HETATM    6  N6    D T1240      89.833  10.378  35.658  1.00 28.81    -0.219 NA
HETATM    7  N13   D T1240      92.770  10.411  38.612  1.00 22.31    -0.127 N 
HETATM    8  N14   D T1240      89.875  12.768  35.624  1.00 25.45    -0.060 NA
ENDROOT
BRANCH   4   9
HETATM    9  C7    D T1240      91.756   7.788  37.820  1.00 23.16     0.000 A 
HETATM   10  C8    D T1240      92.905   7.056  37.267  1.00 23.74     0.000 A 
HETATM   11  C9    D T1240      93.387   5.814  37.820  1.00 22.05     0.007 A 
HETATM   12  C10   D T1240      92.754   5.262  38.923  1.00 28.58     0.040 A 
HETATM   13  C11   D T1240      91.598   5.953  39.530  1.00 23.69     0.064 A 
HETATM   14 CL1    D T1240      93.225   3.835  39.602  1.00  5.79    -0.087 Cl
HETATM   15  C12   D T1240      91.134   7.195  38.963  1.00 23.56    -0.020 A 
ENDBRANCH   4   9
BRANCH   5  16
HETATM   16  C15   D T1240      89.634   7.927  35.588  1.00 31.62     0.046 C 
HETATM   17  C16   D T1240      90.388   7.301  34.424  1.00 31.37     0.007 C 
ENDBRANCH   5  16
TORSDOF 2
ENDMDL
MODEL 7
REMARK VINA RESULT:      -6.5      3.476      4.500
REMARK  2 active torsions:
REMARK  status: ('A' for Active; 'I' for Inactive)
REMARK    1  A    between atoms: C4_4  and  C7_7 
REMARK    2  A    between atoms: C5_5  and  C15_15 
ROOT
HETATM    1  N1    D T1240      90.996   9.469  35.739  1.00 25.62    -0.194 NA
HETATM    2  C2    D T1240      90.378   9.177  34.537  1.00 23.58     0.239 A 
HETATM    3  C3    D T1240      90.755  10.729  36.350  1.00 22.29     0.187 A 
HETATM    4  C4    D T1240      89.872  11.757  35.732  1.00 21.48     0.051 A 
HETATM    5  C5    D T1240      89.258  11.288  34.437  1.00 26.18     0.065 A 
HETATM    6  N6    D T1240      89.513  10.056  33.892  1.00 28.81    -0.219 NA
HETATM    7  N13   D T1240      91.335  11.023  37.513  1.00 22.31    -0.127 N 
HETATM    8  N14   D T1240      90.632   7.944  33.922  1.00 25.45    -0.060 NA
ENDROOT
BRANCH   4   9
HETATM    9  C7    D T1240      89.634  13.081  36.326  1.00 23.16     0.000 A 
HETATM   10  C8    D T1240      90.458  14.247  35.975  1.00 23.74     0.000 A 
HETATM   11  C9    D T1240      90.239  15.561  36.528  1.00 22.05     0.007 A 
HETATM   12  C10   D T1240      89.211  15.761  37.437  1.00 28.58     0.040 A 
HETATM   13  C11   D T1240      88.342  14.631  37.825  1.00 23.69     0.064 A 
HETATM   14 CL1    D T1240      88.905  17.224  38.133  1.00  5.79    -0.087 Cl
HETATM   15  C12   D T1240      88.578  13.326  37.258  1.00 23.56    -0.020 A 
ENDBRANCH   4   9
BRANCH   5  16
HETATM   16  C15   D T1240      88.314  12.195  33.684  1.00 31.62     0.046 C 
HETATM   17  C16   D T1240      88.690  12.464  32.234  1.00 31.37     0.007 C 
ENDBRANCH   5  16
TORSDOF 2
ENDMDL
MODEL 8
REMARK VINA RESULT:      -6.4      2.862      4.003
REMARK  2 active torsions:
REMARK  status: ('A' for Active; 'I' for Inactive)
REMARK    1  A    between atoms: C4_4  and  C7_7 
REMARK    2  A    between atoms: C5_5  and  C15_15 
ROOT
HETATM    1  N1    D T1240      90.064   8.311  34.079  1.00 25.62    -0.194 NA
HETATM    2  C2    D T1240      90.681   7.494  35.008  1.00 23.58     0.239 A 
HETATM    3  C3    D T1240      89.936   9.698  34.358  1.00 22.29     0.187 A 
HETATM    4  C4    D T1240      90.427  10.303  35.628  1.00 21.48     0.051 A 
HETATM    5  C5    D T1240      91.090   9.293  36.529  1.00 26.18     0.065 A 
HETATM    6  N6    D T1240      91.199   7.965  36.210  1.00 28.81    -0.219 NA
HETATM    7  N13   D T1240      89.352  10.502  33.470  1.00 22.31    -0.127 N 
HETATM    8  N14   D T1240      90.788   6.122  34.744  1.00 25.45    -0.060 NA
ENDROOT
BRANCH   4   9
HETATM    9  C7    D T1240      90.275  11.728  35.956  1.00 23.16     0.000 A 
HETATM   10  C8    D T1240      89.038  12.260  36.547  1.00 23.74     0.000 A 
HETATM   11  C9    D T1240      88.865  13.649  36.895  1.00 22.05     0.007 A 
HETATM   12  C10   D T1240      89.898  14.546  36.670  1.00 28.58     0.040 A 
HETATM   13  C11   D T1240      91.169  14.074  36.086  1.00 23.69     0.064 A 
HETATM   14 CL1    D T1240      89.776  16.154  37.018  1.00  5.79    -0.087 Cl
HETATM   15  C12   D T1240      91.321  12.680  35.748  1.00 23.56    -0.020 A 
ENDBRANCH   4   9
BRANCH   5  16
HETATM   16  C15   D T1240      91.670   9.736  37.852  1.00 31.62     0.046 C 
HETATM   17  C16   D T1240      92.834   8.900  38.363  1.00 31.37     0.007 C 
ENDBRANCH   5  16
TORSDOF 2
ENDMDL
MODEL 9
REMARK VINA RESULT:      -6.3      2.515      3.444
REMARK  2 active torsions:
REMARK  status: ('A' for Active; 'I' for Inactive)
REMARK    1  A    between atoms: C4_4  and  C7_7 
REMARK    2  A    between atoms: C5_5  and  C15_15 
ROOT
HETATM    1  N1    D T1240      90.691   7.087  34.321  1.00 25.62    -0.194 NA
HETATM    2  C2    D T1240      91.202   6.509  35.468  1.00 23.58     0.239 A 
HETATM    3  C3    D T1240      90.500   8.494  34.284  1.00 22.29     0.187 A 
HETATM    4  C4    D T1240      90.814   9.371  35.447  1.00 21.48     0.051 A 
HETATM    5  C5    D T1240      91.378   8.601  36.613  1.00 26.18     0.065 A 
HETATM    6  N6    D T1240      91.555   7.242  36.597  1.00 28.81    -0.219 NA
HETATM    7  N13   D T1240      90.016   9.069  33.183  1.00 22.31    -0.127 N 
HETATM    8  N14   D T1240      91.370   5.119  35.515  1.00 25.45    -0.060 NA
ENDROOT
BRANCH   4   9
HETATM    9  C7    D T1240      90.593  10.824  35.445  1.00 23.16     0.000 A 
HETATM   10  C8    D T1240      91.565  11.755  34.855  1.00 23.74     0.000 A 
HETATM   11  C9    D T1240      91.369  13.184  34.823  1.00 22.05     0.007 A 
HETATM   12  C10   D T1240      90.218  13.731  35.370  1.00 28.58     0.040 A 
HETATM   13  C11   D T1240      89.198  12.848  35.972  1.00 23.69     0.064 A 
HETATM   14 CL1    D T1240      89.925  15.353  35.396  1.00  5.79    -0.087 Cl
HETATM   15  C12   D T1240      89.414  11.423  35.991  1.00 23.56    -0.020 A 
ENDBRANCH   4   9
BRANCH   5  16
HETATM   16  C15   D T1240      91.777   9.335  37.872  1.00 31.62     0.046 C 
HETATM   17  C16   D T1240      93.017   8.797  38.572  1.00 31.37     0.007 C 
ENDBRANCH   5  16
TORSDOF 2
ENDMDL
