MODEL 1
REMARK VINA RESULT:      -6.8      0.000      0.000
REMARK  2 active torsions:
REMARK  status: ('A' for Active; 'I' for Inactive)
REMARK    1  A    between atoms: C4_4  and  C7_7 
REMARK    2  A    between atoms: C5_5  and  C15_15 
ROOT
HETATM    1  N1    D T 302      31.094  -0.076  16.427  1.00 23.04    -0.194 NA
HETATM    2  C2    D T 302      31.185  -1.490  16.325  1.00 19.75     0.239 A 
HETATM    3  C3    D T 302      30.625   0.662  15.335  1.00 20.04     0.187 A 
HETATM    4  C4    D T 302      30.223  -0.017  14.041  1.00 18.39     0.051 A 
HETATM    5  C5    D T 302      30.362  -1.541  14.073  1.00 33.99     0.065 A 
HETATM    6  N6    D T 302      30.826  -2.213  15.167  1.00 32.76    -0.219 NA
HETATM    7  N13   D T 302      30.522   2.007  15.402  1.00 22.47    -0.127 N 
HETATM    8  N14   D T 302      31.658  -2.239  17.407  1.00 19.91    -0.060 NA
ENDROOT
BRANCH   4   9
HETATM    9  C7    D T 302      29.721   0.708  12.874  1.00 36.09     0.000 A 
HETATM   10  C8    D T 302      30.681   1.199  11.841  1.00 33.93     0.000 A 
HETATM   11  C9    D T 302      30.258   1.916  10.664  1.00 52.13     0.007 A 
HETATM   12  C10   D T 302      28.886   2.170  10.467  1.00 28.66     0.040 A 
HETATM   13  C11   D T 302      27.913   1.703  11.458  1.00 35.34     0.064 A 
HETATM   14 CL1    D T 302      28.276   2.974   9.179  1.00 15.88    -0.087 Cl
HETATM   15  C12   D T 302      28.347   0.987  12.634  1.00 17.91    -0.020 A 
ENDBRANCH   4   9
BRANCH   5  16
HETATM   16  C15   D T 302      29.981  -2.358  12.863  1.00 42.82     0.046 C 
HETATM   17  C16   D T 302      29.935  -3.862  13.001  1.00 44.85     0.007 C 
ENDBRANCH   5  16
TORSDOF 2
ENDMDL
MODEL 2
REMARK VINA RESULT:      -6.8      1.253      3.021
REMARK  2 active torsions:
REMARK  status: ('A' for Active; 'I' for Inactive)
REMARK    1  A    between atoms: C4_4  and  C7_7 
REMARK    2  A    between atoms: C5_5  and  C15_15 
ROOT
HETATM    1  N1    D T 302      30.854  -2.142  14.407  1.00 23.04    -0.194 NA
HETATM    2  C2    D T 302      30.911  -1.518  15.682  1.00 19.75     0.239 A 
HETATM    3  C3    D T 302      30.495  -1.383  13.287  1.00 20.04     0.187 A 
HETATM    4  C4    D T 302      30.155   0.089  13.411  1.00 18.39     0.051 A 
HETATM    5  C5    D T 302      30.266   0.632  14.838  1.00 33.99     0.065 A 
HETATM    6  N6    D T 302      30.621  -0.154  15.897  1.00 32.76    -0.219 NA
HETATM    7  N13   D T 302      30.436  -1.945  12.061  1.00 22.47    -0.127 N 
HETATM    8  N14   D T 302      31.261  -2.267  16.810  1.00 19.91    -0.060 NA
ENDROOT
BRANCH   4   9
HETATM    9  C7    D T 302      29.781   0.927  12.272  1.00 36.09     0.000 A 
HETATM   10  C8    D T 302      28.346   1.031  11.873  1.00 33.93     0.000 A 
HETATM   11  C9    D T 302      27.904   1.840  10.764  1.00 52.13     0.007 A 
HETATM   12  C10   D T 302      28.853   2.568  10.020  1.00 28.66     0.040 A 
HETATM   13  C11   D T 302      30.272   2.492  10.382  1.00 35.34     0.064 A 
HETATM   14 CL1    D T 302      28.486   3.519   8.740  1.00 15.88    -0.087 Cl
HETATM   15  C12   D T 302      30.704   1.678  11.493  1.00 17.91    -0.020 A 
ENDBRANCH   4   9
BRANCH   5  16
HETATM   16  C15   D T 302      29.977   2.087  15.115  1.00 42.82     0.046 C 
HETATM   17  C16   D T 302      28.557   2.482  15.452  1.00 44.85     0.007 C 
ENDBRANCH   5  16
TORSDOF 2
ENDMDL
MODEL 3
REMARK VINA RESULT:      -6.7      3.742      6.110
REMARK  2 active torsions:
REMARK  status: ('A' for Active; 'I' for Inactive)
REMARK    1  A    between atoms: C4_4  and  C7_7 
REMARK    2  A    between atoms: C5_5  and  C15_15 
ROOT
HETATM    1  N1    D T 302      29.904   0.581  10.869  1.00 23.04    -0.194 NA
HETATM    2  C2    D T 302      29.049   1.687  11.119  1.00 19.75     0.239 A 
HETATM    3  C3    D T 302      30.227  -0.288  11.917  1.00 20.04     0.187 A 
HETATM    4  C4    D T 302      29.688  -0.066  13.316  1.00 18.39     0.051 A 
HETATM    5  C5    D T 302      28.773   1.154  13.441  1.00 33.99     0.065 A 
HETATM    6  N6    D T 302      28.491   1.972  12.384  1.00 32.76    -0.219 NA
HETATM    7  N13   D T 302      31.034  -1.351  11.710  1.00 22.47    -0.127 N 
HETATM    8  N14   D T 302      28.724   2.567  10.082  1.00 19.91    -0.060 NA
ENDROOT
BRANCH   4   9
HETATM    9  C7    D T 302      29.990  -0.949  14.443  1.00 36.09     0.000 A 
HETATM   10  C8    D T 302      30.990  -0.522  15.467  1.00 33.93     0.000 A 
HETATM   11  C9    D T 302      31.333  -1.337  16.605  1.00 52.13     0.007 A 
HETATM   12  C10   D T 302      30.707  -2.588  16.772  1.00 28.66     0.040 A 
HETATM   13  C11   D T 302      29.719  -3.041  15.789  1.00 35.34     0.064 A 
HETATM   14 CL1    D T 302      31.008  -3.610  18.015  1.00 15.88    -0.087 Cl
HETATM   15  C12   D T 302      29.383  -2.218  14.652  1.00 17.91    -0.020 A 
ENDBRANCH   4   9
BRANCH   5  16
HETATM   16  C15   D T 302      28.146   1.492  14.771  1.00 42.82     0.046 C 
HETATM   17  C16   D T 302      26.855   2.279  14.773  1.00 44.85     0.007 C 
ENDBRANCH   5  16
TORSDOF 2
ENDMDL
MODEL 4
REMARK VINA RESULT:      -6.6      3.697      5.727
REMARK  2 active torsions:
REMARK  status: ('A' for Active; 'I' for Inactive)
REMARK    1  A    between atoms: C4_4  and  C7_7 
REMARK    2  A    between atoms: C5_5  and  C15_15 
ROOT
HETATM    1  N1    D T 302      27.901   2.018  12.439  1.00 23.04    -0.194 NA
HETATM    2  C2    D T 302      28.266   1.634  11.122  1.00 19.75     0.239 A 
HETATM    3  C3    D T 302      28.372   1.274  13.527  1.00 20.04     0.187 A 
HETATM    4  C4    D T 302      29.255   0.058  13.324  1.00 18.39     0.051 A 
HETATM    5  C5    D T 302      29.576  -0.235  11.857  1.00 33.99     0.065 A 
HETATM    6  N6    D T 302      29.089   0.525  10.832  1.00 32.76    -0.219 NA
HETATM    7  N13   D T 302      28.048   1.616  14.792  1.00 22.47    -0.127 N 
HETATM    8  N14   D T 302      27.796   2.366  10.026  1.00 19.91    -0.060 NA
ENDROOT
BRANCH   4   9
HETATM    9  C7    D T 302      29.779  -0.748  14.426  1.00 36.09     0.000 A 
HETATM   10  C8    D T 302      29.291  -2.148  14.612  1.00 33.93     0.000 A 
HETATM   11  C9    D T 302      29.765  -3.002  15.672  1.00 52.13     0.007 A 
HETATM   12  C10   D T 302      30.728  -2.511  16.576  1.00 28.66     0.040 A 
HETATM   13  C11   D T 302      31.232  -1.142  16.425  1.00 35.34     0.064 A 
HETATM   14 CL1    D T 302      31.345  -3.373  17.822  1.00 15.88    -0.087 Cl
HETATM   15  C12   D T 302      30.750  -0.295  15.361  1.00 17.91    -0.020 A 
ENDBRANCH   4   9
BRANCH   5  16
HETATM   16  C15   D T 302      30.461  -1.404  11.498  1.00 42.82     0.046 C 
HETATM   17  C16   D T 302      31.941  -1.153  11.320  1.00 44.85     0.007 C 
ENDBRANCH   5  16
TORSDOF 2
ENDMDL
MODEL 5
REMARK VINA RESULT:      -6.6      4.015      6.291
REMARK  2 active torsions:
REMARK  status: ('A' for Active; 'I' for Inactive)
REMARK    1  A    between atoms: C4_4  and  C7_7 
REMARK    2  A    between atoms: C5_5  and  C15_15 
ROOT
HETATM    1  N1    D T 302      30.639   1.357  15.592  1.00 23.04    -0.194 NA
HETATM    2  C2    D T 302      29.656   1.248  14.573  1.00 19.75     0.239 A 
HETATM    3  C3    D T 302      31.174   0.194  16.157  1.00 20.04     0.187 A 
HETATM    4  C4    D T 302      30.715  -1.180  15.710  1.00 18.39     0.051 A 
HETATM    5  C5    D T 302      29.659  -1.150  14.602  1.00 33.99     0.065 A 
HETATM    6  N6    D T 302      29.171   0.016  14.085  1.00 32.76    -0.219 NA
HETATM    7  N13   D T 302      32.114   0.263  17.124  1.00 22.47    -0.127 N 
HETATM    8  N14   D T 302      29.109   2.403  14.005  1.00 19.91    -0.060 NA
ENDROOT
BRANCH   4   9
HETATM    9  C7    D T 302      31.246  -2.425  16.264  1.00 36.09     0.000 A 
HETATM   10  C8    D T 302      30.568  -3.061  17.434  1.00 33.93     0.000 A 
HETATM   11  C9    D T 302      31.033  -4.289  18.028  1.00 52.13     0.007 A 
HETATM   12  C10   D T 302      32.170  -4.928  17.494  1.00 28.66     0.040 A 
HETATM   13  C11   D T 302      32.861  -4.335  16.345  1.00 35.34     0.064 A 
HETATM   14 CL1    D T 302      32.802  -6.320  18.076  1.00 15.88    -0.087 Cl
HETATM   15  C12   D T 302      32.388  -3.104  15.758  1.00 17.91    -0.020 A 
ENDBRANCH   4   9
BRANCH   5  16
HETATM   16  C15   D T 302      29.119  -2.442  14.041  1.00 42.82     0.046 C 
HETATM   17  C16   D T 302      29.877  -3.105  12.914  1.00 44.85     0.007 C 
ENDBRANCH   5  16
TORSDOF 2
ENDMDL
MODEL 6
REMARK VINA RESULT:      -6.6      4.201      6.967
REMARK  2 active torsions:
REMARK  status: ('A' for Active; 'I' for Inactive)
REMARK    1  A    between atoms: C4_4  and  C7_7 
REMARK    2  A    between atoms: C5_5  and  C15_15 
ROOT
HETATM    1  N1    D T 302      29.402  -1.623  12.476  1.00 23.04    -0.194 NA
HETATM    2  C2    D T 302      29.474  -0.260  12.867  1.00 19.75     0.239 A 
HETATM    3  C3    D T 302      29.878  -2.613  13.343  1.00 20.04     0.187 A 
HETATM    4  C4    D T 302      30.481  -2.256  14.687  1.00 18.39     0.051 A 
HETATM    5  C5    D T 302      30.488  -0.755  14.984  1.00 33.99     0.065 A 
HETATM    6  N6    D T 302      30.009   0.171  14.100  1.00 32.76    -0.219 NA
HETATM    7  N13   D T 302      29.819  -3.918  13.002  1.00 22.47    -0.127 N 
HETATM    8  N14   D T 302      29.008   0.739  12.007  1.00 19.91    -0.060 NA
ENDROOT
BRANCH   4   9
HETATM    9  C7    D T 302      30.986  -3.252  15.632  1.00 36.09     0.000 A 
HETATM   10  C8    D T 302      30.078  -3.798  16.684  1.00 33.93     0.000 A 
HETATM   11  C9    D T 302      30.506  -4.784  17.645  1.00 52.13     0.007 A 
HETATM   12  C10   D T 302      31.831  -5.261  17.601  1.00 28.66     0.040 A 
HETATM   13  C11   D T 302      32.751  -4.750  16.581  1.00 35.34     0.064 A 
HETATM   14 CL1    D T 302      32.443  -6.374  18.633  1.00 15.88    -0.087 Cl
HETATM   15  C12   D T 302      32.313  -3.762  15.624  1.00 17.91    -0.020 A 
ENDBRANCH   4   9
BRANCH   5  16
HETATM   16  C15   D T 302      31.040  -0.248  16.293  1.00 42.82     0.046 C 
HETATM   17  C16   D T 302      31.136   1.247  16.498  1.00 44.85     0.007 C 
ENDBRANCH   5  16
TORSDOF 2
ENDMDL
MODEL 7
REMARK VINA RESULT:      -6.6      3.921      6.584
REMARK  2 active torsions:
REMARK  status: ('A' for Active; 'I' for Inactive)
REMARK    1  A    between atoms: C4_4  and  C7_7 
REMARK    2  A    between atoms: C5_5  and  C15_15 
ROOT
HETATM    1  N1    D T 302      29.280  -0.799  12.385  1.00 23.04    -0.194 NA
HETATM    2  C2    D T 302      29.425   0.545  12.817  1.00 19.75     0.239 A 
HETATM    3  C3    D T 302      29.705  -1.839  13.220  1.00 20.04     0.187 A 
HETATM    4  C4    D T 302      30.327  -1.556  14.573  1.00 18.39     0.051 A 
HETATM    5  C5    D T 302      30.413  -0.066  14.915  1.00 33.99     0.065 A 
HETATM    6  N6    D T 302      29.983   0.909  14.061  1.00 32.76    -0.219 NA
HETATM    7  N13   D T 302      29.577  -3.128  12.840  1.00 22.47    -0.127 N 
HETATM    8  N14   D T 302      29.010   1.593  11.989  1.00 19.91    -0.060 NA
ENDROOT
BRANCH   4   9
HETATM    9  C7    D T 302      30.781  -2.605  15.485  1.00 36.09     0.000 A 
HETATM   10  C8    D T 302      32.222  -2.997  15.500  1.00 33.93     0.000 A 
HETATM   11  C9    D T 302      32.741  -4.019  16.375  1.00 52.13     0.007 A 
HETATM   12  C10   D T 302      31.865  -4.682  17.258  1.00 28.66     0.040 A 
HETATM   13  C11   D T 302      30.443  -4.324  17.272  1.00 35.34     0.064 A 
HETATM   14 CL1    D T 302      32.323  -5.860  18.297  1.00 15.88    -0.087 Cl
HETATM   15  C12   D T 302      29.934  -3.300  16.392  1.00 17.91    -0.020 A 
ENDBRANCH   4   9
BRANCH   5  16
HETATM   16  C15   D T 302      30.993   0.371  16.238  1.00 42.82     0.046 C 
HETATM   17  C16   D T 302      31.162   1.851  16.491  1.00 44.85     0.007 C 
ENDBRANCH   5  16
TORSDOF 2
ENDMDL
MODEL 8
REMARK VINA RESULT:      -6.5      3.622      5.242
REMARK  2 active torsions:
REMARK  status: ('A' for Active; 'I' for Inactive)
REMARK    1  A    between atoms: C4_4  and  C7_7 
REMARK    2  A    between atoms: C5_5  and  C15_15 
ROOT
HETATM    1  N1    D T 302      30.269  -0.763  13.019  1.00 23.04    -0.194 NA
HETATM    2  C2    D T 302      30.090  -0.485  11.638  1.00 19.75     0.239 A 
HETATM    3  C3    D T 302      30.041   0.248  13.959  1.00 20.04     0.187 A 
HETATM    4  C4    D T 302      29.615   1.638  13.530  1.00 18.39     0.051 A 
HETATM    5  C5    D T 302      29.451   1.796  12.016  1.00 33.99     0.065 A 
HETATM    6  N6    D T 302      29.688   0.773  11.142  1.00 32.76    -0.219 NA
HETATM    7  N13   D T 302      30.198   0.014  15.280  1.00 22.47    -0.127 N 
HETATM    8  N14   D T 302      30.321  -1.485  10.689  1.00 19.91    -0.060 NA
ENDROOT
BRANCH   4   9
HETATM    9  C7    D T 302      29.357   2.727  14.472  1.00 36.09     0.000 A 
HETATM   10  C8    D T 302      27.982   2.914  15.024  1.00 33.93     0.000 A 
HETATM   11  C9    D T 302      27.656   3.962  15.959  1.00 52.13     0.007 A 
HETATM   12  C10   D T 302      28.665   4.852  16.378  1.00 28.66     0.040 A 
HETATM   13  C11   D T 302      30.027   4.700  15.858  1.00 35.34     0.064 A 
HETATM   14 CL1    D T 302      28.427   6.084  17.428  1.00 15.88    -0.087 Cl
HETATM   15  C12   D T 302      30.343   3.648  14.922  1.00 17.91    -0.020 A 
ENDBRANCH   4   9
BRANCH   5  16
HETATM   16  C15   D T 302      29.013   3.119  11.440  1.00 42.82     0.046 C 
HETATM   17  C16   D T 302      29.266   3.379   9.973  1.00 44.85     0.007 C 
ENDBRANCH   5  16
TORSDOF 2
ENDMDL
MODEL 9
REMARK VINA RESULT:      -6.1      3.294      5.040
REMARK  2 active torsions:
REMARK  status: ('A' for Active; 'I' for Inactive)
REMARK    1  A    between atoms: C4_4  and  C7_7 
REMARK    2  A    between atoms: C5_5  and  C15_15 
ROOT
HETATM    1  N1    D T 302      32.235   2.276  17.643  1.00 23.04    -0.194 NA
HETATM    2  C2    D T 302      32.314   3.634  18.050  1.00 19.75     0.239 A 
HETATM    3  C3    D T 302      31.308   1.905  16.663  1.00 20.04     0.187 A 
HETATM    4  C4    D T 302      30.378   2.924  16.035  1.00 18.39     0.051 A 
HETATM    5  C5    D T 302      30.576   4.349  16.559  1.00 33.99     0.065 A 
HETATM    6  N6    D T 302      31.498   4.656  17.519  1.00 32.76    -0.219 NA
HETATM    7  N13   D T 302      31.212   0.623  16.251  1.00 22.47    -0.127 N 
HETATM    8  N14   D T 302      33.232   4.016  19.034  1.00 19.91    -0.060 NA
ENDROOT
BRANCH   4   9
HETATM    9  C7    D T 302      29.397   2.590  15.003  1.00 36.09     0.000 A 
HETATM   10  C8    D T 302      29.810   2.584  13.568  1.00 33.93     0.000 A 
HETATM   11  C9    D T 302      28.899   2.260  12.498  1.00 52.13     0.007 A 
HETATM   12  C10   D T 302      27.563   1.933  12.805  1.00 28.66     0.040 A 
HETATM   13  C11   D T 302      27.121   1.928  14.202  1.00 35.34     0.064 A 
HETATM   14 CL1    D T 302      26.429   1.552  11.688  1.00 15.88    -0.087 Cl
HETATM   15  C12   D T 302      28.040   2.255  15.266  1.00 17.91    -0.020 A 
ENDBRANCH   4   9
BRANCH   5  16
HETATM   16  C15   D T 302      29.735   5.476  16.014  1.00 42.82     0.046 C 
HETATM   17  C16   D T 302      28.416   5.774  16.687  1.00 44.85     0.007 C 
ENDBRANCH   5  16
TORSDOF 2
ENDMDL
