MODEL 1
REMARK VINA RESULT:      -4.8      0.000      0.000
REMARK  3 active torsions:
REMARK  status: ('A' for Active; 'I' for Inactive)
REMARK    1  A    between atoms: N_4  and  C_10 
REMARK    2  A    between atoms: N_5  and  C_14 
REMARK    3  A    between atoms: C_7  and  C_8 
ROOT
HETATM    1 CL   UNL     1      25.376  -0.280  25.079  1.00  0.00    -0.084 Cl
HETATM    2  N   UNL     1      30.025   5.979  27.365  1.00  0.00    -0.067 NA
HETATM    3  N   UNL     1      28.913   7.038  25.508  1.00  0.00    -0.045 NA
HETATM    4  C   UNL     1      28.402   4.754  26.074  1.00  0.00     0.045 A 
HETATM    5  C   UNL     1      29.318   4.860  27.102  1.00  0.00     0.068 A 
HETATM    6  C   UNL     1      27.666   3.531  25.831  1.00  0.00    -0.020 A 
HETATM    7  C   UNL     1      28.239   5.887  25.302  1.00  0.00     0.153 A 
HETATM    8  C   UNL     1      26.437   3.322  26.455  1.00  0.00     0.014 A 
HETATM    9  C   UNL     1      28.188   2.562  24.974  1.00  0.00     0.014 A 
HETATM   10  C   UNL     1      29.777   7.014  26.541  1.00  0.00     0.722 A 
HETATM   11  C   UNL     1      25.728   2.144  26.222  1.00  0.00     0.024 A 
HETATM   12  C   UNL     1      27.479   1.384  24.741  1.00  0.00     0.024 A 
HETATM   13  C   UNL     1      26.249   1.174  25.364  1.00  0.00     0.034 A 
ENDROOT
BRANCH   5  14
HETATM   14  C   UNL     1      29.588   3.706  28.013  1.00  0.00     0.056 C 
HETATM   15  C   UNL     1      28.872   3.851  29.352  1.00  0.00     0.011 C 
ENDBRANCH   5  14
BRANCH   7  16
HETATM   16  N   UNL     1      27.315   5.854  24.228  1.00  0.00    -0.383 N 
HETATM   17  H   UNL     1      26.777   6.685  24.020  1.00  0.00     0.157 HD
HETATM   18  H   UNL     1      26.880   4.960  24.037  1.00  0.00     0.157 HD
ENDBRANCH   7  16
BRANCH  10  19
HETATM   19  N   UNL     1      30.499   8.202  26.786  1.00  0.00    -0.231 N 
HETATM   20  H   UNL     1      30.336   8.715  27.641  1.00  0.00     0.174 HD
HETATM   21  H   UNL     1      31.171   8.526  26.103  1.00  0.00     0.174 HD
ENDBRANCH  10  19
TORSDOF 3
ENDMDL
MODEL 2
REMARK VINA RESULT:      -4.7     13.346     15.295
REMARK  3 active torsions:
REMARK  status: ('A' for Active; 'I' for Inactive)
REMARK    1  A    between atoms: N_4  and  C_10 
REMARK    2  A    between atoms: N_5  and  C_14 
REMARK    3  A    between atoms: C_7  and  C_8 
ROOT
HETATM    1 CL   UNL     1      39.078  -6.361  19.076  1.00  0.00    -0.084 Cl
HETATM    2  N   UNL     1      31.591  -4.262  16.720  1.00  0.00    -0.067 NA
HETATM    3  N   UNL     1      31.802  -6.284  15.426  1.00  0.00    -0.045 NA
HETATM    4  C   UNL     1      33.612  -5.566  16.844  1.00  0.00     0.045 A 
HETATM    5  C   UNL     1      32.833  -4.483  17.199  1.00  0.00     0.068 A 
HETATM    6  C   UNL     1      34.940  -5.761  17.386  1.00  0.00    -0.020 A 
HETATM    7  C   UNL     1      33.038  -6.443  15.945  1.00  0.00     0.153 A 
HETATM    8  C   UNL     1      35.114  -6.488  18.563  1.00  0.00     0.014 A 
HETATM    9  C   UNL     1      36.046  -5.218  16.731  1.00  0.00     0.014 A 
HETATM   10  C   UNL     1      31.144  -5.188  15.850  1.00  0.00     0.722 A 
HETATM   11  C   UNL     1      36.393  -6.675  19.085  1.00  0.00     0.024 A 
HETATM   12  C   UNL     1      37.326  -5.405  17.254  1.00  0.00     0.024 A 
HETATM   13  C   UNL     1      37.500  -6.133  18.430  1.00  0.00     0.034 A 
ENDROOT
BRANCH   5  14
HETATM   14  C   UNL     1      33.335  -3.458  18.165  1.00  0.00     0.056 C 
HETATM   15  C   UNL     1      33.324  -2.053  17.568  1.00  0.00     0.011 C 
ENDBRANCH   5  14
BRANCH   7  16
HETATM   16  N   UNL     1      33.778  -7.580  15.534  1.00  0.00    -0.383 N 
HETATM   17  H   UNL     1      34.682  -7.444  15.100  1.00  0.00     0.157 HD
HETATM   18  H   UNL     1      33.238  -8.385  15.240  1.00  0.00     0.157 HD
ENDBRANCH   7  16
BRANCH  10  19
HETATM   19  N   UNL     1      29.848  -4.990  15.328  1.00  0.00    -0.231 N 
HETATM   20  H   UNL     1      29.054  -5.400  15.802  1.00  0.00     0.174 HD
HETATM   21  H   UNL     1      29.729  -4.441  14.488  1.00  0.00     0.174 HD
ENDBRANCH  10  19
TORSDOF 3
ENDMDL
MODEL 3
REMARK VINA RESULT:      -4.6      5.022      7.091
REMARK  3 active torsions:
REMARK  status: ('A' for Active; 'I' for Inactive)
REMARK    1  A    between atoms: N_4  and  C_10 
REMARK    2  A    between atoms: N_5  and  C_14 
REMARK    3  A    between atoms: C_7  and  C_8 
ROOT
HETATM    1 CL   UNL     1      29.045   7.165  26.649  1.00  0.00    -0.084 Cl
HETATM    2  N   UNL     1      25.902   3.721  33.303  1.00  0.00    -0.067 NA
HETATM    3  N   UNL     1      28.134   4.095  34.133  1.00  0.00    -0.045 NA
HETATM    4  C   UNL     1      27.556   4.754  31.889  1.00  0.00     0.045 A 
HETATM    5  C   UNL     1      26.284   4.274  32.133  1.00  0.00     0.068 A 
HETATM    6  C   UNL     1      27.919   5.340  30.617  1.00  0.00    -0.020 A 
HETATM    7  C   UNL     1      28.448   4.637  32.937  1.00  0.00     0.153 A 
HETATM    8  C   UNL     1      27.760   6.710  30.409  1.00  0.00     0.014 A 
HETATM    9  C   UNL     1      28.425   4.534  29.597  1.00  0.00     0.014 A 
HETATM   10  C   UNL     1      26.863   3.663  34.245  1.00  0.00     0.722 A 
HETATM   11  C   UNL     1      28.109   7.275  29.183  1.00  0.00     0.024 A 
HETATM   12  C   UNL     1      28.774   5.099  28.370  1.00  0.00     0.024 A 
HETATM   13  C   UNL     1      28.616   6.469  28.163  1.00  0.00     0.034 A 
ENDROOT
BRANCH   5  14
HETATM   14  C   UNL     1      25.223   4.341  31.083  1.00  0.00     0.056 C 
HETATM   15  C   UNL     1      25.002   2.992  30.403  1.00  0.00     0.011 C 
ENDBRANCH   5  14
BRANCH   7  16
HETATM   16  N   UNL     1      29.773   5.109  32.761  1.00  0.00    -0.383 N 
HETATM   17  H   UNL     1      30.454   4.501  32.324  1.00  0.00     0.157 HD
HETATM   18  H   UNL     1      30.112   5.763  33.455  1.00  0.00     0.157 HD
ENDBRANCH   7  16
BRANCH  10  19
HETATM   19  N   UNL     1      26.499   3.091  35.483  1.00  0.00    -0.231 N 
HETATM   20  H   UNL     1      26.667   3.605  36.337  1.00  0.00     0.174 HD
HETATM   21  H   UNL     1      26.075   2.174  35.501  1.00  0.00     0.174 HD
ENDBRANCH  10  19
TORSDOF 3
ENDMDL
MODEL 4
REMARK VINA RESULT:      -4.5      3.504      5.308
REMARK  3 active torsions:
REMARK  status: ('A' for Active; 'I' for Inactive)
REMARK    1  A    between atoms: N_4  and  C_10 
REMARK    2  A    between atoms: N_5  and  C_14 
REMARK    3  A    between atoms: C_7  and  C_8 
ROOT
HETATM    1 CL   UNL     1      23.289   5.281  31.384  1.00  0.00    -0.084 Cl
HETATM    2  N   UNL     1      30.649   4.823  27.973  1.00  0.00    -0.067 NA
HETATM    3  N   UNL     1      31.331   5.572  30.159  1.00  0.00    -0.045 NA
HETATM    4  C   UNL     1      28.996   5.224  29.679  1.00  0.00     0.045 A 
HETATM    5  C   UNL     1      29.370   4.851  28.403  1.00  0.00     0.068 A 
HETATM    6  C   UNL     1      27.610   5.238  30.095  1.00  0.00    -0.020 A 
HETATM    7  C   UNL     1      30.031   5.577  30.523  1.00  0.00     0.153 A 
HETATM    8  C   UNL     1      27.039   4.097  30.657  1.00  0.00     0.014 A 
HETATM    9  C   UNL     1      26.845   6.393  29.930  1.00  0.00     0.014 A 
HETATM   10  C   UNL     1      31.564   5.191  28.889  1.00  0.00     0.722 A 
HETATM   11  C   UNL     1      25.703   4.110  31.057  1.00  0.00     0.024 A 
HETATM   12  C   UNL     1      25.508   6.406  30.330  1.00  0.00     0.024 A 
HETATM   13  C   UNL     1      24.937   5.266  30.893  1.00  0.00     0.034 A 
ENDROOT
BRANCH   5  14
HETATM   14  C   UNL     1      28.347   4.445  27.390  1.00  0.00     0.056 C 
HETATM   15  C   UNL     1      28.528   5.181  26.065  1.00  0.00     0.011 C 
ENDBRANCH   5  14
BRANCH   7  16
HETATM   16  N   UNL     1      29.725   5.971  31.849  1.00  0.00    -0.383 N 
HETATM   17  H   UNL     1      28.792   6.305  32.058  1.00  0.00     0.157 HD
HETATM   18  H   UNL     1      30.488   6.358  32.390  1.00  0.00     0.157 HD
ENDBRANCH   7  16
BRANCH  10  19
HETATM   19  N   UNL     1      32.913   5.173  28.475  1.00  0.00    -0.231 N 
HETATM   20  H   UNL     1      33.595   5.725  28.977  1.00  0.00     0.174 HD
HETATM   21  H   UNL     1      33.183   4.608  27.681  1.00  0.00     0.174 HD
ENDBRANCH  10  19
TORSDOF 3
ENDMDL
MODEL 5
REMARK VINA RESULT:      -4.5     11.725     13.727
REMARK  3 active torsions:
REMARK  status: ('A' for Active; 'I' for Inactive)
REMARK    1  A    between atoms: N_4  and  C_10 
REMARK    2  A    between atoms: N_5  and  C_14 
REMARK    3  A    between atoms: C_7  and  C_8 
ROOT
HETATM    1 CL   UNL     1      34.101   0.172  21.349  1.00  0.00    -0.084 Cl
HETATM    2  N   UNL     1      33.001  -6.228  16.466  1.00  0.00    -0.067 NA
HETATM    3  N   UNL     1      32.941  -4.501  14.786  1.00  0.00    -0.045 NA
HETATM    4  C   UNL     1      33.263  -3.919  17.101  1.00  0.00     0.045 A 
HETATM    5  C   UNL     1      33.190  -5.267  17.394  1.00  0.00     0.068 A 
HETATM    6  C   UNL     1      33.467  -2.924  18.132  1.00  0.00    -0.020 A 
HETATM    7  C   UNL     1      33.131  -3.592  15.766  1.00  0.00     0.153 A 
HETATM    8  C   UNL     1      34.760  -2.542  18.487  1.00  0.00     0.014 A 
HETATM    9  C   UNL     1      32.369  -2.349  18.772  1.00  0.00     0.014 A 
HETATM   10  C   UNL     1      32.886  -5.781  15.201  1.00  0.00     0.722 A 
HETATM   11  C   UNL     1      34.957  -1.584  19.481  1.00  0.00     0.024 A 
HETATM   12  C   UNL     1      32.566  -1.391  19.767  1.00  0.00     0.024 A 
HETATM   13  C   UNL     1      33.859  -1.008  20.121  1.00  0.00     0.034 A 
ENDROOT
BRANCH   5  14
HETATM   14  C   UNL     1      33.317  -5.755  18.802  1.00  0.00     0.056 C 
HETATM   15  C   UNL     1      32.855  -7.202  18.951  1.00  0.00     0.011 C 
ENDBRANCH   5  14
BRANCH   7  16
HETATM   16  N   UNL     1      33.196  -2.228  15.388  1.00  0.00    -0.383 N 
HETATM   17  H   UNL     1      32.366  -1.783  15.019  1.00  0.00     0.157 HD
HETATM   18  H   UNL     1      34.091  -1.900  15.044  1.00  0.00     0.157 HD
ENDBRANCH   7  16
BRANCH  10  19
HETATM   19  N   UNL     1      32.688  -6.759  14.203  1.00  0.00    -0.231 N 
HETATM   20  H   UNL     1      33.486  -7.123  13.699  1.00  0.00     0.174 HD
HETATM   21  H   UNL     1      31.752  -7.085  14.003  1.00  0.00     0.174 HD
ENDBRANCH  10  19
TORSDOF 3
ENDMDL
MODEL 6
REMARK VINA RESULT:      -4.5     12.083     13.952
REMARK  3 active torsions:
REMARK  status: ('A' for Active; 'I' for Inactive)
REMARK    1  A    between atoms: N_4  and  C_10 
REMARK    2  A    between atoms: N_5  and  C_14 
REMARK    3  A    between atoms: C_7  and  C_8 
ROOT
HETATM    1 CL   UNL     1      35.413  -6.885  13.043  1.00  0.00    -0.084 Cl
HETATM    2  N   UNL     1      31.566  -2.999  19.052  1.00  0.00    -0.067 NA
HETATM    3  N   UNL     1      29.641  -3.541  17.707  1.00  0.00    -0.045 NA
HETATM    4  C   UNL     1      31.840  -4.210  16.988  1.00  0.00     0.045 A 
HETATM    5  C   UNL     1      32.336  -3.616  18.132  1.00  0.00     0.068 A 
HETATM    6  C   UNL     1      32.707  -4.861  16.029  1.00  0.00    -0.020 A 
HETATM    7  C   UNL     1      30.471  -4.141  16.828  1.00  0.00     0.153 A 
HETATM    8  C   UNL     1      33.003  -6.217  16.163  1.00  0.00     0.014 A 
HETATM    9  C   UNL     1      33.249  -4.130  14.972  1.00  0.00     0.014 A 
HETATM   10  C   UNL     1      30.247  -2.998  18.781  1.00  0.00     0.722 A 
HETATM   11  C   UNL     1      33.839  -6.844  15.240  1.00  0.00     0.024 A 
HETATM   12  C   UNL     1      34.086  -4.757  14.048  1.00  0.00     0.024 A 
HETATM   13  C   UNL     1      34.380  -6.113  14.181  1.00  0.00     0.034 A 
ENDROOT
BRANCH   5  14
HETATM   14  C   UNL     1      33.802  -3.620  18.426  1.00  0.00     0.056 C 
HETATM   15  C   UNL     1      34.440  -2.254  18.183  1.00  0.00     0.011 C 
ENDBRANCH   5  14
BRANCH   7  16
HETATM   16  N   UNL     1      29.888  -4.730  15.677  1.00  0.00    -0.383 N 
HETATM   17  H   UNL     1      29.766  -5.734  15.651  1.00  0.00     0.157 HD
HETATM   18  H   UNL     1      30.059  -4.260  14.797  1.00  0.00     0.157 HD
ENDBRANCH   7  16
BRANCH  10  19
HETATM   19  N   UNL     1      29.410  -2.363  19.722  1.00  0.00    -0.231 N 
HETATM   20  H   UNL     1      28.555  -1.922  19.410  1.00  0.00     0.174 HD
HETATM   21  H   UNL     1      29.674  -2.355  20.698  1.00  0.00     0.174 HD
ENDBRANCH  10  19
TORSDOF 3
ENDMDL
MODEL 7
REMARK VINA RESULT:      -4.4     12.945     14.930
REMARK  3 active torsions:
REMARK  status: ('A' for Active; 'I' for Inactive)
REMARK    1  A    between atoms: N_4  and  C_10 
REMARK    2  A    between atoms: N_5  and  C_14 
REMARK    3  A    between atoms: C_7  and  C_8 
ROOT
HETATM    1 CL   UNL     1      37.611  -6.173  13.436  1.00  0.00    -0.084 Cl
HETATM    2  N   UNL     1      30.620  -4.579  17.256  1.00  0.00    -0.067 NA
HETATM    3  N   UNL     1      31.367  -2.308  16.947  1.00  0.00    -0.045 NA
HETATM    4  C   UNL     1      32.714  -4.139  16.150  1.00  0.00     0.045 A 
HETATM    5  C   UNL     1      31.744  -4.994  16.636  1.00  0.00     0.068 A 
HETATM    6  C   UNL     1      33.904  -4.632  15.490  1.00  0.00    -0.020 A 
HETATM    7  C   UNL     1      32.469  -2.793  16.336  1.00  0.00     0.153 A 
HETATM    8  C   UNL     1      33.906  -4.826  14.109  1.00  0.00     0.014 A 
HETATM    9  C   UNL     1      35.048  -4.914  16.236  1.00  0.00     0.014 A 
HETATM   10  C   UNL     1      30.498  -3.243  17.377  1.00  0.00     0.722 A 
HETATM   11  C   UNL     1      35.052  -5.302  13.473  1.00  0.00     0.024 A 
HETATM   12  C   UNL     1      36.195  -5.390  15.600  1.00  0.00     0.024 A 
HETATM   13  C   UNL     1      36.198  -5.584  14.220  1.00  0.00     0.034 A 
ENDROOT
BRANCH   5  14
HETATM   14  C   UNL     1      31.887  -6.476  16.499  1.00  0.00     0.056 C 
HETATM   15  C   UNL     1      32.168  -7.151  17.839  1.00  0.00     0.011 C 
ENDBRANCH   5  14
BRANCH   7  16
HETATM   16  N   UNL     1      33.420  -1.854  15.863  1.00  0.00    -0.383 N 
HETATM   17  H   UNL     1      33.109  -1.108  15.255  1.00  0.00     0.157 HD
HETATM   18  H   UNL     1      34.363  -2.198  15.731  1.00  0.00     0.157 HD
ENDBRANCH   7  16
BRANCH  10  19
HETATM   19  N   UNL     1      29.334  -2.772  18.021  1.00  0.00    -0.231 N 
HETATM   20  H   UNL     1      29.181  -2.993  18.995  1.00  0.00     0.174 HD
HETATM   21  H   UNL     1      28.667  -2.218  17.501  1.00  0.00     0.174 HD
ENDBRANCH  10  19
TORSDOF 3
ENDMDL
MODEL 8
REMARK VINA RESULT:      -4.4     12.687     14.075
REMARK  3 active torsions:
REMARK  status: ('A' for Active; 'I' for Inactive)
REMARK    1  A    between atoms: N_4  and  C_10 
REMARK    2  A    between atoms: N_5  and  C_14 
REMARK    3  A    between atoms: C_7  and  C_8 
ROOT
HETATM    1 CL   UNL     1      34.773  -6.856  23.534  1.00  0.00    -0.084 Cl
HETATM    2  N   UNL     1      32.998  -4.284  16.034  1.00  0.00    -0.067 NA
HETATM    3  N   UNL     1      31.540  -6.202  16.093  1.00  0.00    -0.045 NA
HETATM    4  C   UNL     1      32.910  -5.672  18.001  1.00  0.00     0.045 A 
HETATM    5  C   UNL     1      33.391  -4.591  17.288  1.00  0.00     0.068 A 
HETATM    6  C   UNL     1      33.362  -5.961  19.345  1.00  0.00    -0.020 A 
HETATM    7  C   UNL     1      31.977  -6.450  17.345  1.00  0.00     0.153 A 
HETATM    8  C   UNL     1      32.693  -5.412  20.439  1.00  0.00     0.014 A 
HETATM    9  C   UNL     1      34.468  -6.787  19.547  1.00  0.00     0.014 A 
HETATM   10  C   UNL     1      32.084  -5.120  15.504  1.00  0.00     0.722 A 
HETATM   11  C   UNL     1      33.129  -5.689  21.734  1.00  0.00     0.024 A 
HETATM   12  C   UNL     1      34.903  -7.064  20.843  1.00  0.00     0.024 A 
HETATM   13  C   UNL     1      34.234  -6.516  21.936  1.00  0.00     0.034 A 
ENDROOT
BRANCH   5  14
HETATM   14  C   UNL     1      34.406  -3.669  17.882  1.00  0.00     0.056 C 
HETATM   15  C   UNL     1      33.856  -2.258  18.076  1.00  0.00     0.011 C 
ENDBRANCH   5  14
BRANCH   7  16
HETATM   16  N   UNL     1      31.438  -7.578  18.014  1.00  0.00    -0.383 N 
HETATM   17  H   UNL     1      30.705  -8.110  17.562  1.00  0.00     0.157 HD
HETATM   18  H   UNL     1      31.424  -7.535  19.026  1.00  0.00     0.157 HD
ENDBRANCH   7  16
BRANCH  10  19
HETATM   19  N   UNL     1      31.650  -4.830  14.194  1.00  0.00    -0.231 N 
HETATM   20  H   UNL     1      31.422  -3.877  13.945  1.00  0.00     0.174 HD
HETATM   21  H   UNL     1      31.571  -5.578  13.518  1.00  0.00     0.174 HD
ENDBRANCH  10  19
TORSDOF 3
ENDMDL
MODEL 9
REMARK VINA RESULT:      -4.3     11.395     13.030
REMARK  3 active torsions:
REMARK  status: ('A' for Active; 'I' for Inactive)
REMARK    1  A    between atoms: N_4  and  C_10 
REMARK    2  A    between atoms: N_5  and  C_14 
REMARK    3  A    between atoms: C_7  and  C_8 
ROOT
HETATM    1 CL   UNL     1      27.409  -3.377  21.058  1.00  0.00    -0.084 Cl
HETATM    2  N   UNL     1      33.657  -3.967  15.898  1.00  0.00    -0.067 NA
HETATM    3  N   UNL     1      31.992  -5.069  14.548  1.00  0.00    -0.045 NA
HETATM    4  C   UNL     1      31.411  -4.229  16.729  1.00  0.00     0.045 A 
HETATM    5  C   UNL     1      32.717  -3.796  16.851  1.00  0.00     0.068 A 
HETATM    6  C   UNL     1      30.438  -4.022  17.780  1.00  0.00    -0.020 A 
HETATM    7  C   UNL     1      31.103  -4.865  15.543  1.00  0.00     0.153 A 
HETATM    8  C   UNL     1      29.664  -2.862  17.796  1.00  0.00     0.014 A 
HETATM    9  C   UNL     1      30.275  -4.983  18.778  1.00  0.00     0.014 A 
HETATM   10  C   UNL     1      33.232  -4.602  14.789  1.00  0.00     0.722 A 
HETATM   11  C   UNL     1      28.727  -2.662  18.809  1.00  0.00     0.024 A 
HETATM   12  C   UNL     1      29.337  -4.784  19.791  1.00  0.00     0.024 A 
HETATM   13  C   UNL     1      28.563  -3.624  19.807  1.00  0.00     0.034 A 
ENDROOT
BRANCH   5  14
HETATM   14  C   UNL     1      33.181  -3.092  18.086  1.00  0.00     0.056 C 
HETATM   15  C   UNL     1      33.179  -1.575  17.917  1.00  0.00     0.011 C 
ENDBRANCH   5  14
BRANCH   7  16
HETATM   16  N   UNL     1      29.781  -5.337  15.345  1.00  0.00    -0.383 N 
HETATM   17  H   UNL     1      29.225  -4.933  14.602  1.00  0.00     0.157 HD
HETATM   18  H   UNL     1      29.291  -5.658  16.170  1.00  0.00     0.157 HD
ENDBRANCH   7  16
BRANCH  10  19
HETATM   19  N   UNL     1      34.188  -4.798  13.770  1.00  0.00    -0.231 N 
HETATM   20  H   UNL     1      34.307  -5.719  13.369  1.00  0.00     0.174 HD
HETATM   21  H   UNL     1      34.744  -4.015  13.451  1.00  0.00     0.174 HD
ENDBRANCH  10  19
TORSDOF 3
ENDMDL
