MODEL 1
REMARK VINA RESULT:      -9.0      0.000      0.000
REMARK  7 active torsions:
REMARK  status: ('A' for Active; 'I' for Inactive)
REMARK    1  A    between atoms: N3_2  and  C20_12 
REMARK    2  A    between atoms: C4_3  and  C5_4 
REMARK    3  A    between atoms: C13_9  and  N2_29 
REMARK    4  A    between atoms: C17_11  and  C19_33 
REMARK    5  A    between atoms: C20_12  and  C16_31 
REMARK    6  A    between atoms: C2_23  and  C3_24 
REMARK    7  A    between atoms: C9_25  and  C12_27 
REMARK       I    between atoms: C12_27  and  N2_29 
ROOT
HETATM    1  C12   D T2601     274.345 228.184 223.789  1.00 46.76     0.279 C 
HETATM    2  O1    D T2601     273.755 227.275 224.371  1.00 51.78    -0.265 OA
HETATM    3  N2    D T2601     274.999 229.172 224.419  1.00 44.45    -0.208 NA
ENDROOT
BRANCH   1   4
HETATM    4  C9    D T2601     274.351 228.185 222.298  1.00 45.99     0.059 A 
HETATM    5  C8    D T2601     273.164 228.303 221.493  1.00 46.02     0.004 A 
HETATM    6  C7    D T2601     273.266 228.305 220.073  1.00 47.49    -0.004 A 
HETATM    7  C6    D T2601     274.550 228.178 219.448  1.00 43.57    -0.014 A 
HETATM    8  C5    D T2601     275.732 228.058 220.272  1.00 47.11     0.038 A 
HETATM    9  C11   D T2601     274.652 228.178 217.929  1.00 43.74     0.032 C 
HETATM   10  C10   D T2601     275.609 228.066 221.672  1.00 47.17     0.013 A 
BRANCH   8  11
HETATM   11  C4    D T2601     277.059 227.928 219.698  1.00 52.56    -0.058 C 
HETATM   12  C3    D T2601     278.135 227.731 219.178  1.00 49.20    -0.039 C 
BRANCH  12  13
HETATM   13  C2    D T2601     279.423 227.554 218.678  1.00 38.17     0.145 A 
HETATM   14  N82   D T2601     280.358 226.688 219.131  1.00 38.45    -0.203 N 
HETATM   15  N81   D T2601     280.226 225.822 220.177  1.00 47.45    -0.162 NA
HETATM   16  C84   D T2601     281.471 226.887 218.300  1.00 43.62     0.165 A 
HETATM   17  C83   D T2601     281.328 225.105 220.379  1.00 47.13     0.121 A 
HETATM   18  C82   D T2601     282.529 225.188 219.630  1.00 45.79     0.026 A 
HETATM   19  C81   D T2601     282.605 226.080 218.585  1.00 45.43     0.041 A 
HETATM   20  N1    D T2601     281.227 227.811 217.406  1.00 46.40    -0.223 NA
HETATM   21  C1    D T2601     279.942 228.229 217.642  1.00 39.18     0.128 A 
ENDBRANCH  12  13
ENDBRANCH   8  11
ENDBRANCH   1   4
BRANCH   3  22
HETATM   22  C13   D T2601     275.108 229.335 225.822  1.00 46.23     0.085 A 
HETATM   23  C14   D T2601     274.115 230.078 226.497  1.00 47.02     0.019 A 
HETATM   24  C15   D T2601     274.189 230.259 227.914  1.00 48.51    -0.001 A 
HETATM   25  C16   D T2601     275.266 229.694 228.693  1.00 46.86     0.015 A 
HETATM   26  C17   D T2601     276.294 228.931 227.989  1.00 48.59     0.071 A 
HETATM   27  C18   D T2601     276.183 228.776 226.584  1.00 47.76     0.023 A 
BRANCH  25  28
HETATM   28  C20   D T2601     275.258 229.942 230.218  1.00 47.69     0.277 C 
BRANCH  28  29
HETATM   29  N3    D T2601     274.179 229.250 230.927  1.00 53.58     0.146 N 
HETATM   30  C21   D T2601     273.934 227.890 230.383  1.00 51.34     0.286 C 
HETATM   31  C22   D T2601     272.664 227.289 231.018  1.00 47.99     0.286 C 
HETATM   32  N4    D T2601     272.853 227.151 232.471  1.00 50.46     0.143 N 
HETATM   33  C23   D T2601     273.220 228.459 233.092  1.00 49.01     0.286 C 
HETATM   34  C25   D T2601     271.689 226.541 233.090  1.00 50.12     0.285 C 
HETATM   35  C24   D T2601     274.431 229.129 232.373  1.00 52.37     0.286 C 
ENDBRANCH  28  29
ENDBRANCH  25  28
BRANCH  26  36
HETATM   36  C19   D T2601     277.500 228.255 228.647  1.00 53.84     0.419 C 
HETATM   37  F1    D T2601     278.091 227.458 227.792  1.00 57.02    -0.166 F 
HETATM   38  F2    D T2601     278.402 229.128 229.066  1.00 55.32    -0.166 F 
HETATM   39  F3    D T2601     277.108 227.556 229.707  1.00 54.82    -0.166 F 
ENDBRANCH  26  36
ENDBRANCH   3  22
TORSDOF 7
ENDMDL
MODEL 2
REMARK VINA RESULT:      -8.6      3.112     12.456
REMARK  7 active torsions:
REMARK  status: ('A' for Active; 'I' for Inactive)
REMARK    1  A    between atoms: N3_2  and  C20_12 
REMARK    2  A    between atoms: C4_3  and  C5_4 
REMARK    3  A    between atoms: C13_9  and  N2_29 
REMARK    4  A    between atoms: C17_11  and  C19_33 
REMARK    5  A    between atoms: C20_12  and  C16_31 
REMARK    6  A    between atoms: C2_23  and  C3_24 
REMARK    7  A    between atoms: C9_25  and  C12_27 
REMARK       I    between atoms: C12_27  and  N2_29 
ROOT
HETATM    1  C12   D T2601     275.921 228.479 227.478  1.00 46.76     0.279 C 
HETATM    2  O1    D T2601     276.753 229.241 226.985  1.00 51.78    -0.265 OA
HETATM    3  N2    D T2601     275.568 227.306 226.930  1.00 44.45    -0.208 NA
ENDROOT
BRANCH   1   4
HETATM    4  C9    D T2601     275.278 228.869 228.765  1.00 45.99     0.059 A 
HETATM    5  C8    D T2601     275.467 230.147 229.400  1.00 46.02     0.004 A 
HETATM    6  C7    D T2601     274.804 230.436 230.625  1.00 47.49    -0.004 A 
HETATM    7  C6    D T2601     273.956 229.451 231.230  1.00 43.57    -0.014 A 
HETATM    8  C5    D T2601     273.779 228.172 230.580  1.00 47.11     0.038 A 
HETATM    9  C11   D T2601     273.251 229.766 232.543  1.00 43.74     0.032 C 
HETATM   10  C10   D T2601     274.438 227.909 229.367  1.00 47.17     0.013 A 
BRANCH   8  11
HETATM   11  C4    D T2601     272.934 227.135 231.143  1.00 52.56    -0.058 C 
HETATM   12  C3    D T2601     272.175 226.343 231.658  1.00 49.20    -0.039 C 
BRANCH  12  13
HETATM   13  C2    D T2601     271.397 225.359 232.264  1.00 38.17     0.145 A 
HETATM   14  N82   D T2601     271.224 225.163 233.591  1.00 38.45    -0.203 N 
HETATM   15  N81   D T2601     271.788 225.888 234.601  1.00 47.45    -0.162 NA
HETATM   16  C84   D T2601     270.356 224.064 233.686  1.00 43.62     0.165 A 
HETATM   17  C83   D T2601     271.426 225.444 235.801  1.00 47.13     0.121 A 
HETATM   18  C82   D T2601     270.562 224.350 236.064  1.00 45.79     0.026 A 
HETATM   19  C81   D T2601     270.022 223.657 235.005  1.00 45.43     0.041 A 
HETATM   20  N1    D T2601     270.028 223.624 232.498  1.00 46.40    -0.223 NA
HETATM   21  C1    D T2601     270.680 224.437 231.605  1.00 39.18     0.128 A 
ENDBRANCH  12  13
ENDBRANCH   8  11
ENDBRANCH   1   4
BRANCH   3  22
HETATM   22  C13   D T2601     276.071 226.767 225.721  1.00 46.23     0.085 A 
HETATM   23  C14   D T2601     277.286 226.047 225.754  1.00 47.02     0.019 A 
HETATM   24  C15   D T2601     277.822 225.483 224.554  1.00 48.51    -0.001 A 
HETATM   25  C16   D T2601     277.149 225.629 223.284  1.00 46.86     0.015 A 
HETATM   26  C17   D T2601     275.896 226.379 223.254  1.00 48.59     0.071 A 
HETATM   27  C18   D T2601     275.399 226.922 224.466  1.00 47.76     0.023 A 
BRANCH  25  28
HETATM   28  C20   D T2601     277.805 224.983 222.044  1.00 47.69     0.277 C 
BRANCH  28  29
HETATM   29  N3    D T2601     279.145 225.495 221.746  1.00 53.58     0.146 N 
HETATM   30  C21   D T2601     280.028 224.451 221.165  1.00 51.34     0.286 C 
HETATM   31  C22   D T2601     281.473 224.978 221.065  1.00 47.99     0.286 C 
HETATM   32  N4    D T2601     281.516 226.139 220.162  1.00 50.46     0.143 N 
HETATM   33  C23   D T2601     280.566 227.202 220.606  1.00 49.01     0.286 C 
HETATM   34  C25   D T2601     282.876 226.628 220.010  1.00 50.12     0.285 C 
HETATM   35  C24   D T2601     279.126 226.645 220.826  1.00 52.37     0.286 C 
ENDBRANCH  28  29
ENDBRANCH  25  28
BRANCH  26  36
HETATM   36  C19   D T2601     275.042 226.628 222.008  1.00 53.84     0.419 C 
HETATM   37  F1    D T2601     275.732 227.292 221.115  1.00 57.02    -0.166 F 
HETATM   38  F2    D T2601     274.637 225.502 221.440  1.00 55.32    -0.166 F 
HETATM   39  F3    D T2601     273.953 227.318 222.332  1.00 54.82    -0.166 F 
ENDBRANCH  26  36
ENDBRANCH   3  22
TORSDOF 7
ENDMDL
MODEL 3
REMARK VINA RESULT:      -8.5      3.406     11.994
REMARK  7 active torsions:
REMARK  status: ('A' for Active; 'I' for Inactive)
REMARK    1  A    between atoms: N3_2  and  C20_12 
REMARK    2  A    between atoms: C4_3  and  C5_4 
REMARK    3  A    between atoms: C13_9  and  N2_29 
REMARK    4  A    between atoms: C17_11  and  C19_33 
REMARK    5  A    between atoms: C20_12  and  C16_31 
REMARK    6  A    between atoms: C2_23  and  C3_24 
REMARK    7  A    between atoms: C9_25  and  C12_27 
REMARK       I    between atoms: C12_27  and  N2_29 
ROOT
HETATM    1  C12   D T2601     276.034 228.434 227.204  1.00 46.76     0.279 C 
HETATM    2  O1    D T2601     276.679 229.299 226.612  1.00 51.78    -0.265 OA
HETATM    3  N2    D T2601     275.850 227.190 226.735  1.00 44.45    -0.208 NA
ENDROOT
BRANCH   1   4
HETATM    4  C9    D T2601     275.433 228.778 228.524  1.00 45.99     0.059 A 
HETATM    5  C8    D T2601     275.767 229.960 229.273  1.00 46.02     0.004 A 
HETATM    6  C7    D T2601     275.135 230.212 230.523  1.00 47.49    -0.004 A 
HETATM    7  C6    D T2601     274.175 229.281 231.039  1.00 43.57    -0.014 A 
HETATM    8  C5    D T2601     273.853 228.096 230.276  1.00 47.11     0.038 A 
HETATM    9  C11   D T2601     273.504 229.555 232.379  1.00 43.74     0.032 C 
HETATM   10  C10   D T2601     274.484 227.871 229.041  1.00 47.17     0.013 A 
BRANCH   8  11
HETATM   11  C4    D T2601     272.890 227.118 230.746  1.00 52.56    -0.058 C 
HETATM   12  C3    D T2601     272.115 226.240 231.062  1.00 49.20    -0.039 C 
BRANCH  12  13
HETATM   13  C2    D T2601     271.147 225.319 231.454  1.00 38.17     0.145 A 
HETATM   14  N82   D T2601     270.256 224.688 230.656  1.00 38.45    -0.203 N 
HETATM   15  N81   D T2601     270.123 224.839 229.307  1.00 47.45    -0.162 NA
HETATM   16  C84   D T2601     269.513 223.868 231.519  1.00 43.62     0.165 A 
HETATM   17  C83   D T2601     269.148 224.082 228.810  1.00 47.13     0.121 A 
HETATM   18  C82   D T2601     268.311 223.206 229.546  1.00 45.79     0.026 A 
HETATM   19  C81   D T2601     268.493 223.094 230.906  1.00 45.43     0.041 A 
HETATM   20  N1    D T2601     269.926 223.995 232.755  1.00 46.40    -0.223 NA
HETATM   21  C1    D T2601     270.952 224.904 232.715  1.00 39.18     0.128 A 
ENDBRANCH  12  13
ENDBRANCH   8  11
ENDBRANCH   1   4
BRANCH   3  22
HETATM   22  C13   D T2601     276.345 226.681 225.510  1.00 46.23     0.085 A 
HETATM   23  C14   D T2601     277.567 225.974 225.515  1.00 47.02     0.019 A 
HETATM   24  C15   D T2601     278.095 225.440 224.297  1.00 48.51    -0.001 A 
HETATM   25  C16   D T2601     277.406 225.604 223.038  1.00 46.86     0.015 A 
HETATM   26  C17   D T2601     276.145 226.341 223.038  1.00 48.59     0.071 A 
HETATM   27  C18   D T2601     275.656 226.854 224.266  1.00 47.76     0.023 A 
BRANCH  25  28
HETATM   28  C20   D T2601     278.055 224.990 221.778  1.00 47.69     0.277 C 
BRANCH  28  29
HETATM   29  N3    D T2601     279.410 225.476 221.510  1.00 53.58     0.146 N 
HETATM   30  C21   D T2601     280.267 224.436 220.886  1.00 51.34     0.286 C 
HETATM   31  C22   D T2601     281.727 224.926 220.816  1.00 47.99     0.286 C 
HETATM   32  N4    D T2601     281.807 226.126 219.968  1.00 50.46     0.143 N 
HETATM   33  C23   D T2601     280.886 227.194 220.457  1.00 49.01     0.286 C 
HETATM   34  C25   D T2601     283.181 226.582 219.845  1.00 50.12     0.285 C 
HETATM   35  C24   D T2601     279.429 226.669 220.644  1.00 52.37     0.286 C 
ENDBRANCH  28  29
ENDBRANCH  25  28
BRANCH  26  36
HETATM   36  C19   D T2601     275.275 226.605 221.807  1.00 53.84     0.419 C 
HETATM   37  F1    D T2601     274.217 227.301 222.143  1.00 57.02    -0.166 F 
HETATM   38  F2    D T2601     275.917 227.287 220.870  1.00 55.32    -0.166 F 
HETATM   39  F3    D T2601     274.894 225.454 221.262  1.00 54.82    -0.166 F 
ENDBRANCH  26  36
ENDBRANCH   3  22
TORSDOF 7
ENDMDL
MODEL 4
REMARK VINA RESULT:      -8.5      1.830      2.536
REMARK  7 active torsions:
REMARK  status: ('A' for Active; 'I' for Inactive)
REMARK    1  A    between atoms: N3_2  and  C20_12 
REMARK    2  A    between atoms: C4_3  and  C5_4 
REMARK    3  A    between atoms: C13_9  and  N2_29 
REMARK    4  A    between atoms: C17_11  and  C19_33 
REMARK    5  A    between atoms: C20_12  and  C16_31 
REMARK    6  A    between atoms: C2_23  and  C3_24 
REMARK    7  A    between atoms: C9_25  and  C12_27 
REMARK       I    between atoms: C12_27  and  N2_29 
ROOT
HETATM    1  C12   D T2601     274.892 230.318 224.256  1.00 46.76     0.279 C 
HETATM    2  O1    D T2601     275.214 231.399 224.746  1.00 51.78    -0.265 OA
HETATM    3  N2    D T2601     274.282 229.340 224.943  1.00 44.45    -0.208 NA
ENDROOT
BRANCH   1   4
HETATM    4  C9    D T2601     275.179 230.081 222.813  1.00 45.99     0.059 A 
HETATM    5  C8    D T2601     274.483 230.739 221.739  1.00 46.02     0.004 A 
HETATM    6  C7    D T2601     274.831 230.457 220.388  1.00 47.49    -0.004 A 
HETATM    7  C6    D T2601     275.868 229.510 220.099  1.00 43.57    -0.014 A 
HETATM    8  C5    D T2601     276.555 228.855 221.190  1.00 47.11     0.038 A 
HETATM    9  C11   D T2601     276.234 229.211 218.652  1.00 43.74     0.032 C 
HETATM   10  C10   D T2601     276.200 229.153 222.516  1.00 47.17     0.013 A 
BRANCH   8  11
HETATM   11  C4    D T2601     277.613 227.888 220.961  1.00 52.56    -0.058 C 
HETATM   12  C3    D T2601     278.492 227.059 220.869  1.00 49.20    -0.039 C 
BRANCH  12  13
HETATM   13  C2    D T2601     279.555 226.178 220.683  1.00 38.17     0.145 A 
HETATM   14  N82   D T2601     280.534 226.272 219.754  1.00 38.45    -0.203 N 
HETATM   15  N81   D T2601     280.669 227.246 218.809  1.00 47.45    -0.162 NA
HETATM   16  C84   D T2601     281.357 225.157 219.980  1.00 43.62     0.165 A 
HETATM   17  C83   D T2601     281.736 227.055 218.038  1.00 47.13     0.121 A 
HETATM   18  C82   D T2601     282.659 225.984 218.138  1.00 45.79     0.026 A 
HETATM   19  C81   D T2601     282.473 225.031 219.112  1.00 45.43     0.041 A 
HETATM   20  N1    D T2601     280.905 224.438 220.976  1.00 46.40    -0.223 NA
HETATM   21  C1    D T2601     279.775 225.078 221.418  1.00 39.18     0.128 A 
ENDBRANCH  12  13
ENDBRANCH   8  11
ENDBRANCH   1   4
BRANCH   3  22
HETATM   22  C13   D T2601     273.925 229.384 226.313  1.00 46.23     0.085 A 
HETATM   23  C14   D T2601     272.556 229.356 226.658  1.00 47.02     0.019 A 
HETATM   24  C15   D T2601     272.158 229.393 228.032  1.00 48.51    -0.001 A 
HETATM   25  C16   D T2601     273.130 229.458 229.099  1.00 46.86     0.015 A 
HETATM   26  C17   D T2601     274.545 229.491 228.736  1.00 48.59     0.071 A 
HETATM   27  C18   D T2601     274.896 229.453 227.363  1.00 47.76     0.023 A 
BRANCH  25  28
HETATM   28  C20   D T2601     272.603 229.492 230.550  1.00 47.69     0.277 C 
BRANCH  28  29
HETATM   29  N3    D T2601     271.935 228.257 230.969  1.00 53.58     0.146 N 
HETATM   30  C21   D T2601     272.822 227.071 230.850  1.00 51.34     0.286 C 
HETATM   31  C22   D T2601     272.016 225.782 231.101  1.00 47.99     0.286 C 
HETATM   32  N4    D T2601     271.478 225.791 232.472  1.00 50.46     0.143 N 
HETATM   33  C23   D T2601     270.661 227.015 232.721  1.00 49.01     0.286 C 
HETATM   34  C25   D T2601     270.753 224.563 232.753  1.00 50.12     0.285 C 
HETATM   35  C24   D T2601     271.432 228.319 232.353  1.00 52.37     0.286 C 
ENDBRANCH  28  29
ENDBRANCH  25  28
BRANCH  26  36
HETATM   36  C19   D T2601     275.711 229.551 229.726  1.00 53.84     0.419 C 
HETATM   37  F1    D T2601     275.603 230.612 230.486  1.00 57.02    -0.166 F 
HETATM   38  F2    D T2601     275.752 228.494 230.524  1.00 55.32    -0.166 F 
HETATM   39  F3    D T2601     276.865 229.591 229.069  1.00 54.82    -0.166 F 
ENDBRANCH  26  36
ENDBRANCH   3  22
TORSDOF 7
ENDMDL
MODEL 5
REMARK VINA RESULT:      -8.3      2.878     12.487
REMARK  7 active torsions:
REMARK  status: ('A' for Active; 'I' for Inactive)
REMARK    1  A    between atoms: N3_2  and  C20_12 
REMARK    2  A    between atoms: C4_3  and  C5_4 
REMARK    3  A    between atoms: C13_9  and  N2_29 
REMARK    4  A    between atoms: C17_11  and  C19_33 
REMARK    5  A    between atoms: C20_12  and  C16_31 
REMARK    6  A    between atoms: C2_23  and  C3_24 
REMARK    7  A    between atoms: C9_25  and  C12_27 
REMARK       I    between atoms: C12_27  and  N2_29 
ROOT
HETATM    1  C12   D T2601     275.411 228.322 226.977  1.00 46.76     0.279 C 
HETATM    2  O1    D T2601     276.166 227.362 226.828  1.00 51.78    -0.265 OA
HETATM    3  N2    D T2601     274.896 229.030 225.960  1.00 44.45    -0.208 NA
ENDROOT
BRANCH   1   4
HETATM    4  C9    D T2601     275.029 228.715 228.363  1.00 45.99     0.059 A 
HETATM    5  C8    D T2601     275.437 229.946 228.988  1.00 46.02     0.004 A 
HETATM    6  C7    D T2601     275.016 230.243 230.314  1.00 47.49    -0.004 A 
HETATM    7  C6    D T2601     274.195 229.311 231.030  1.00 43.57    -0.014 A 
HETATM    8  C5    D T2601     273.797 228.078 230.389  1.00 47.11     0.038 A 
HETATM    9  C11   D T2601     273.751 229.634 232.451  1.00 43.74     0.032 C 
HETATM   10  C10   D T2601     274.217 227.807 229.076  1.00 47.17     0.013 A 
BRANCH   8  11
HETATM   11  C4    D T2601     272.966 227.096 231.062  1.00 52.56    -0.058 C 
HETATM   12  C3    D T2601     272.193 226.314 231.573  1.00 49.20    -0.039 C 
BRANCH  12  13
HETATM   13  C2    D T2601     271.370 225.427 232.261  1.00 38.17     0.145 A 
HETATM   14  N82   D T2601     271.247 225.307 233.603  1.00 38.45    -0.203 N 
HETATM   15  N81   D T2601     271.916 226.027 234.549  1.00 47.45    -0.162 NA
HETATM   16  C84   D T2601     270.299 224.289 233.792  1.00 43.62     0.165 A 
HETATM   17  C83   D T2601     271.580 225.669 235.785  1.00 47.13     0.121 A 
HETATM   18  C82   D T2601     270.645 224.665 236.140  1.00 45.79     0.026 A 
HETATM   19  C81   D T2601     269.999 223.971 235.142  1.00 45.43     0.041 A 
HETATM   20  N1    D T2601     269.878 223.824 232.643  1.00 46.40    -0.223 NA
HETATM   21  C1    D T2601     270.549 224.539 231.682  1.00 39.18     0.128 A 
ENDBRANCH  12  13
ENDBRANCH   8  11
ENDBRANCH   1   4
BRANCH   3  22
HETATM   22  C13   D T2601     275.137 228.804 224.583  1.00 46.23     0.085 A 
HETATM   23  C14   D T2601     276.056 229.639 223.910  1.00 47.02     0.019 A 
HETATM   24  C15   D T2601     276.329 229.438 222.521  1.00 48.51    -0.001 A 
HETATM   25  C16   D T2601     275.685 228.387 221.768  1.00 46.86     0.015 A 
HETATM   26  C17   D T2601     274.731 227.529 222.467  1.00 48.59     0.071 A 
HETATM   27  C18   D T2601     274.488 227.763 223.844  1.00 47.76     0.023 A 
BRANCH  25  28
HETATM   28  C20   D T2601     276.047 228.247 220.273  1.00 47.69     0.277 C 
BRANCH  28  29
HETATM   29  N3    D T2601     277.485 228.132 220.018  1.00 53.58     0.146 N 
HETATM   30  C21   D T2601     278.005 226.778 220.341  1.00 51.34     0.286 C 
HETATM   31  C22   D T2601     279.544 226.769 220.255  1.00 47.99     0.286 C 
HETATM   32  N4    D T2601     279.966 227.084 218.880  1.00 50.46     0.143 N 
HETATM   33  C23   D T2601     279.391 228.384 218.425  1.00 49.01     0.286 C 
HETATM   34  C25   D T2601     281.413 227.035 218.758  1.00 50.12     0.285 C 
HETATM   35  C24   D T2601     277.845 228.442 218.623  1.00 52.37     0.286 C 
ENDBRANCH  28  29
ENDBRANCH  25  28
BRANCH  26  36
HETATM   36  C19   D T2601     273.962 226.364 221.838  1.00 53.84     0.419 C 
HETATM   37  F1    D T2601     273.087 226.816 220.975  1.00 57.02    -0.166 F 
HETATM   38  F2    D T2601     274.756 225.523 221.195  1.00 55.32    -0.166 F 
HETATM   39  F3    D T2601     273.336 225.669 222.782  1.00 54.82    -0.166 F 
ENDBRANCH  26  36
ENDBRANCH   3  22
TORSDOF 7
ENDMDL
MODEL 6
REMARK VINA RESULT:      -8.2      3.124     12.241
REMARK  7 active torsions:
REMARK  status: ('A' for Active; 'I' for Inactive)
REMARK    1  A    between atoms: N3_2  and  C20_12 
REMARK    2  A    between atoms: C4_3  and  C5_4 
REMARK    3  A    between atoms: C13_9  and  N2_29 
REMARK    4  A    between atoms: C17_11  and  C19_33 
REMARK    5  A    between atoms: C20_12  and  C16_31 
REMARK    6  A    between atoms: C2_23  and  C3_24 
REMARK    7  A    between atoms: C9_25  and  C12_27 
REMARK       I    between atoms: C12_27  and  N2_29 
ROOT
HETATM    1  C12   D T2601     275.827 229.158 228.018  1.00 46.76     0.279 C 
HETATM    2  O1    D T2601     277.057 229.203 228.011  1.00 51.78    -0.265 OA
HETATM    3  N2    D T2601     275.082 228.974 226.917  1.00 44.45    -0.208 NA
ENDROOT
BRANCH   1   4
HETATM    4  C9    D T2601     275.120 229.297 229.322  1.00 45.99     0.059 A 
HETATM    5  C8    D T2601     275.249 230.442 230.185  1.00 46.02     0.004 A 
HETATM    6  C7    D T2601     274.527 230.494 231.410  1.00 47.49    -0.004 A 
HETATM    7  C6    D T2601     273.680 229.400 231.788  1.00 43.57    -0.014 A 
HETATM    8  C5    D T2601     273.563 228.257 230.911  1.00 47.11     0.038 A 
HETATM    9  C11   D T2601     272.911 229.461 233.101  1.00 43.74     0.032 C 
HETATM   10  C10   D T2601     274.280 228.229 229.702  1.00 47.17     0.013 A 
BRANCH   8  11
HETATM   11  C4    D T2601     272.722 227.121 231.238  1.00 52.56    -0.058 C 
HETATM   12  C3    D T2601     271.949 226.238 231.544  1.00 49.20    -0.039 C 
BRANCH  12  13
HETATM   13  C2    D T2601     271.157 225.159 231.930  1.00 38.17     0.145 A 
HETATM   14  N82   D T2601     270.938 224.723 233.192  1.00 38.45    -0.203 N 
HETATM   15  N81   D T2601     271.459 225.250 234.337  1.00 47.45    -0.162 NA
HETATM   16  C84   D T2601     270.076 223.624 233.052  1.00 43.62     0.165 A 
HETATM   17  C83   D T2601     271.058 224.593 235.422  1.00 47.13     0.121 A 
HETATM   18  C82   D T2601     270.194 223.469 235.447  1.00 45.79     0.026 A 
HETATM   19  C81   D T2601     269.697 222.982 234.260  1.00 45.43     0.041 A 
HETATM   20  N1    D T2601     269.794 223.410 231.792  1.00 46.40    -0.223 NA
HETATM   21  C1    D T2601     270.472 224.373 231.088  1.00 39.18     0.128 A 
ENDBRANCH  12  13
ENDBRANCH   8  11
ENDBRANCH   1   4
BRANCH   3  22
HETATM   22  C13   D T2601     275.572 228.817 225.597  1.00 46.23     0.085 A 
HETATM   23  C14   D T2601     276.069 227.555 225.204  1.00 47.02     0.019 A 
HETATM   24  C15   D T2601     276.566 227.357 223.878  1.00 48.51    -0.001 A 
HETATM   25  C16   D T2601     276.578 228.427 222.908  1.00 46.86     0.015 A 
HETATM   26  C17   D T2601     276.068 229.732 223.320  1.00 48.59     0.071 A 
HETATM   27  C18   D T2601     275.584 229.886 224.644  1.00 47.76     0.023 A 
BRANCH  25  28
HETATM   28  C20   D T2601     277.133 228.116 221.500  1.00 47.69     0.277 C 
BRANCH  28  29
HETATM   29  N3    D T2601     278.354 227.305 221.509  1.00 53.58     0.146 N 
HETATM   30  C21   D T2601     278.089 225.888 221.151  1.00 51.34     0.286 C 
HETATM   31  C22   D T2601     279.357 225.041 221.375  1.00 47.99     0.286 C 
HETATM   32  N4    D T2601     280.436 225.520 220.496  1.00 50.46     0.143 N 
HETATM   33  C23   D T2601     280.695 226.975 220.706  1.00 49.01     0.286 C 
HETATM   34  C25   D T2601     281.630 224.708 220.651  1.00 50.12     0.285 C 
HETATM   35  C24   D T2601     279.391 227.824 220.599  1.00 52.37     0.286 C 
ENDBRANCH  28  29
ENDBRANCH  25  28
BRANCH  26  36
HETATM   36  C19   D T2601     275.994 230.975 222.430  1.00 53.84     0.419 C 
HETATM   37  F1    D T2601     275.206 230.751 221.408  1.00 57.02    -0.166 F 
HETATM   38  F2    D T2601     275.519 232.031 223.073  1.00 55.32    -0.166 F 
HETATM   39  F3    D T2601     277.208 231.296 221.993  1.00 54.82    -0.166 F 
ENDBRANCH  26  36
ENDBRANCH   3  22
TORSDOF 7
ENDMDL
MODEL 7
REMARK VINA RESULT:      -8.2      3.333     11.805
REMARK  7 active torsions:
REMARK  status: ('A' for Active; 'I' for Inactive)
REMARK    1  A    between atoms: N3_2  and  C20_12 
REMARK    2  A    between atoms: C4_3  and  C5_4 
REMARK    3  A    between atoms: C13_9  and  N2_29 
REMARK    4  A    between atoms: C17_11  and  C19_33 
REMARK    5  A    between atoms: C20_12  and  C16_31 
REMARK    6  A    between atoms: C2_23  and  C3_24 
REMARK    7  A    between atoms: C9_25  and  C12_27 
REMARK       I    between atoms: C12_27  and  N2_29 
ROOT
HETATM    1  C12   D T2601     275.948 229.009 228.300  1.00 46.76     0.279 C 
HETATM    2  O1    D T2601     277.163 229.176 228.388  1.00 51.78    -0.265 OA
HETATM    3  N2    D T2601     275.319 228.695 227.157  1.00 44.45    -0.208 NA
ENDROOT
BRANCH   1   4
HETATM    4  C9    D T2601     275.122 229.147 229.534  1.00 45.99     0.059 A 
HETATM    5  C8    D T2601     275.162 230.295 230.400  1.00 46.02     0.004 A 
HETATM    6  C7    D T2601     274.330 230.345 231.554  1.00 47.49    -0.004 A 
HETATM    7  C6    D T2601     273.461 229.245 231.857  1.00 43.57    -0.014 A 
HETATM    8  C5    D T2601     273.436 228.098 230.977  1.00 47.11     0.038 A 
HETATM    9  C11   D T2601     272.576 229.303 233.094  1.00 43.74     0.032 C 
HETATM   10  C10   D T2601     274.260 228.073 229.840  1.00 47.17     0.013 A 
BRANCH   8  11
HETATM   11  C4    D T2601     272.577 226.955 231.231  1.00 52.56    -0.058 C 
HETATM   12  C3    D T2601     271.847 225.995 231.342  1.00 49.20    -0.039 C 
BRANCH  12  13
HETATM   13  C2    D T2601     270.964 224.941 231.569  1.00 38.17     0.145 A 
HETATM   14  N82   D T2601     270.135 224.367 230.668  1.00 38.45    -0.203 N 
HETATM   15  N81   D T2601     269.993 224.715 229.356  1.00 47.45    -0.162 NA
HETATM   16  C84   D T2601     269.466 223.360 231.380  1.00 43.62     0.165 A 
HETATM   17  C83   D T2601     269.091 223.962 228.732  1.00 47.13     0.121 A 
HETATM   18  C82   D T2601     268.334 222.911 229.308  1.00 45.79     0.026 A 
HETATM   19  C81   D T2601     268.521 222.604 230.636  1.00 45.43     0.041 A 
HETATM   20  N1    D T2601     269.862 223.328 232.627  1.00 46.40    -0.223 NA
HETATM   21  C1    D T2601     270.803 224.319 232.746  1.00 39.18     0.128 A 
ENDBRANCH  12  13
ENDBRANCH   8  11
ENDBRANCH   1   4
BRANCH   3  22
HETATM   22  C13   D T2601     275.931 228.517 225.893  1.00 46.23     0.085 A 
HETATM   23  C14   D T2601     276.115 229.646 225.065  1.00 47.02     0.019 A 
HETATM   24  C15   D T2601     276.735 229.507 223.783  1.00 48.51    -0.001 A 
HETATM   25  C16   D T2601     277.189 228.224 223.299  1.00 46.86     0.015 A 
HETATM   26  C17   D T2601     276.992 227.058 224.157  1.00 48.59     0.071 A 
HETATM   27  C18   D T2601     276.373 227.240 225.419  1.00 47.76     0.023 A 
BRANCH  25  28
HETATM   28  C20   D T2601     277.848 228.174 221.903  1.00 47.69     0.277 C 
BRANCH  28  29
HETATM   29  N3    D T2601     276.891 228.129 220.794  1.00 53.58     0.146 N 
HETATM   30  C21   D T2601     276.926 229.366 219.973  1.00 51.34     0.286 C 
HETATM   31  C22   D T2601     275.767 229.357 218.956  1.00 47.99     0.286 C 
HETATM   32  N4    D T2601     275.922 228.217 218.038  1.00 50.46     0.143 N 
HETATM   33  C23   D T2601     276.013 226.930 218.788  1.00 49.01     0.286 C 
HETATM   34  C25   D T2601     274.869 228.212 217.036  1.00 50.12     0.285 C 
HETATM   35  C24   D T2601     277.105 226.977 219.901  1.00 52.37     0.286 C 
ENDBRANCH  28  29
ENDBRANCH  25  28
BRANCH  26  36
HETATM   36  C19   D T2601     277.414 225.627 223.816  1.00 53.84     0.419 C 
HETATM   37  F1    D T2601     277.011 224.803 224.751  1.00 57.02    -0.166 F 
HETATM   38  F2    D T2601     276.902 225.207 222.670  1.00 55.32    -0.166 F 
HETATM   39  F3    D T2601     278.737 225.557 223.703  1.00 54.82    -0.166 F 
ENDBRANCH  26  36
ENDBRANCH   3  22
TORSDOF 7
ENDMDL
MODEL 8
REMARK VINA RESULT:      -8.1      2.813      3.808
REMARK  7 active torsions:
REMARK  status: ('A' for Active; 'I' for Inactive)
REMARK    1  A    between atoms: N3_2  and  C20_12 
REMARK    2  A    between atoms: C4_3  and  C5_4 
REMARK    3  A    between atoms: C13_9  and  N2_29 
REMARK    4  A    between atoms: C17_11  and  C19_33 
REMARK    5  A    between atoms: C20_12  and  C16_31 
REMARK    6  A    between atoms: C2_23  and  C3_24 
REMARK    7  A    between atoms: C9_25  and  C12_27 
REMARK       I    between atoms: C12_27  and  N2_29 
ROOT
HETATM    1  C12   D T2601     274.517 229.735 225.861  1.00 46.76     0.279 C 
HETATM    2  O1    D T2601     273.404 230.225 226.048  1.00 51.78    -0.265 OA
HETATM    3  N2    D T2601     275.126 228.914 226.730  1.00 44.45    -0.208 NA
ENDROOT
BRANCH   1   4
HETATM    4  C9    D T2601     275.228 230.057 224.591  1.00 45.99     0.059 A 
HETATM    5  C8    D T2601     275.096 231.309 223.894  1.00 46.02     0.004 A 
HETATM    6  C7    D T2601     275.822 231.532 222.690  1.00 47.49    -0.004 A 
HETATM    7  C6    D T2601     276.676 230.505 222.169  1.00 43.57    -0.014 A 
HETATM    8  C5    D T2601     276.795 229.252 222.881  1.00 47.11     0.038 A 
HETATM    9  C11   D T2601     277.448 230.749 220.879  1.00 43.74     0.032 C 
HETATM   10  C10   D T2601     276.075 229.055 224.071  1.00 47.17     0.013 A 
BRANCH   8  11
HETATM   11  C4    D T2601     277.644 228.176 222.403  1.00 52.56    -0.058 C 
HETATM   12  C3    D T2601     278.422 227.308 222.072  1.00 49.20    -0.039 C 
BRANCH  12  13
HETATM   13  C2    D T2601     279.278 226.326 221.578  1.00 38.17     0.145 A 
HETATM   14  N82   D T2601     279.211 224.996 221.816  1.00 38.45    -0.203 N 
HETATM   15  N81   D T2601     278.295 224.354 222.597  1.00 47.45    -0.162 NA
HETATM   16  C84   D T2601     280.282 224.444 221.095  1.00 43.62     0.165 A 
HETATM   17  C83   D T2601     278.499 223.041 222.635  1.00 47.13     0.121 A 
HETATM   18  C82   D T2601     279.530 222.334 221.967  1.00 45.79     0.026 A 
HETATM   19  C81   D T2601     280.426 223.035 221.192  1.00 45.43     0.041 A 
HETATM   20  N1    D T2601     280.951 225.377 220.466  1.00 46.40    -0.223 NA
HETATM   21  C1    D T2601     280.321 226.557 220.768  1.00 39.18     0.128 A 
ENDBRANCH  12  13
ENDBRANCH   8  11
ENDBRANCH   1   4
BRANCH   3  22
HETATM   22  C13   D T2601     274.608 228.492 227.979  1.00 46.23     0.085 A 
HETATM   23  C14   D T2601     273.974 227.233 228.060  1.00 47.02     0.019 A 
HETATM   24  C15   D T2601     273.444 226.771 229.305  1.00 48.51    -0.001 A 
HETATM   25  C16   D T2601     273.538 227.566 230.508  1.00 46.86     0.015 A 
HETATM   26  C17   D T2601     274.190 228.870 230.418  1.00 48.59     0.071 A 
HETATM   27  C18   D T2601     274.701 229.290 229.164  1.00 47.76     0.023 A 
BRANCH  25  28
HETATM   28  C20   D T2601     272.938 226.981 231.806  1.00 47.69     0.277 C 
BRANCH  28  29
HETATM   29  N3    D T2601     271.615 227.514 232.141  1.00 53.58     0.146 N 
HETATM   30  C21   D T2601     270.543 226.498 231.975  1.00 51.34     0.286 C 
HETATM   31  C22   D T2601     269.160 227.160 232.138  1.00 47.99     0.286 C 
HETATM   32  N4    D T2601     269.032 227.715 233.495  1.00 50.46     0.143 N 
HETATM   33  C23   D T2601     270.142 228.667 233.794  1.00 49.01     0.286 C 
HETATM   34  C25   D T2601     267.717 228.302 233.692  1.00 50.12     0.285 C 
HETATM   35  C24   D T2601     271.542 228.040 233.515  1.00 52.37     0.286 C 
ENDBRANCH  28  29
ENDBRANCH  25  28
BRANCH  26  36
HETATM   36  C19   D T2601     274.389 229.842 231.584  1.00 53.84     0.419 C 
HETATM   37  F1    D T2601     275.176 230.825 231.223  1.00 57.02    -0.166 F 
HETATM   38  F2    D T2601     273.250 230.378 231.996  1.00 55.32    -0.166 F 
HETATM   39  F3    D T2601     274.921 229.206 232.622  1.00 54.82    -0.166 F 
ENDBRANCH  26  36
ENDBRANCH   3  22
TORSDOF 7
ENDMDL
MODEL 9
REMARK VINA RESULT:      -8.1      4.670      6.951
REMARK  7 active torsions:
REMARK  status: ('A' for Active; 'I' for Inactive)
REMARK    1  A    between atoms: N3_2  and  C20_12 
REMARK    2  A    between atoms: C4_3  and  C5_4 
REMARK    3  A    between atoms: C13_9  and  N2_29 
REMARK    4  A    between atoms: C17_11  and  C19_33 
REMARK    5  A    between atoms: C20_12  and  C16_31 
REMARK    6  A    between atoms: C2_23  and  C3_24 
REMARK    7  A    between atoms: C9_25  and  C12_27 
REMARK       I    between atoms: C12_27  and  N2_29 
ROOT
HETATM    1  C12   D T2601     273.886 227.560 227.999  1.00 46.76     0.279 C 
HETATM    2  O1    D T2601     273.043 228.372 227.621  1.00 51.78    -0.265 OA
HETATM    3  N2    D T2601     273.585 226.382 228.568  1.00 44.45    -0.208 NA
ENDROOT
BRANCH   1   4
HETATM    4  C9    D T2601     275.327 227.891 227.804  1.00 45.99     0.059 A 
HETATM    5  C8    D T2601     276.121 228.609 228.765  1.00 46.02     0.004 A 
HETATM    6  C7    D T2601     277.494 228.872 228.498  1.00 47.49    -0.004 A 
HETATM    7  C6    D T2601     278.080 228.430 227.267  1.00 43.57    -0.014 A 
HETATM    8  C5    D T2601     277.267 227.712 226.311  1.00 47.11     0.038 A 
HETATM    9  C11   D T2601     279.549 228.717 226.986  1.00 43.74     0.032 C 
HETATM   10  C10   D T2601     275.916 227.457 226.598  1.00 47.17     0.013 A 
BRANCH   8  11
HETATM   11  C4    D T2601     277.804 227.239 225.048  1.00 52.56    -0.058 C 
HETATM   12  C3    D T2601     278.218 226.930 223.951  1.00 49.20    -0.039 C 
BRANCH  12  13
HETATM   13  C2    D T2601     278.663 226.462 222.718  1.00 38.17     0.145 A 
HETATM   14  N82   D T2601     279.354 225.322 222.482  1.00 38.45    -0.203 N 
HETATM   15  N81   D T2601     279.759 224.410 223.412  1.00 47.45    -0.162 NA
HETATM   16  C84   D T2601     279.556 225.301 221.094  1.00 43.62     0.165 A 
HETATM   17  C83   D T2601     280.424 223.397 222.865  1.00 47.13     0.121 A 
HETATM   18  C82   D T2601     280.711 223.230 221.487  1.00 45.79     0.026 A 
HETATM   19  C81   D T2601     280.275 224.183 220.594  1.00 45.43     0.041 A 
HETATM   20  N1    D T2601     279.026 226.356 220.528  1.00 46.40    -0.223 NA
HETATM   21  C1    D T2601     278.465 227.084 221.546  1.00 39.18     0.128 A 
ENDBRANCH  12  13
ENDBRANCH   8  11
ENDBRANCH   1   4
BRANCH   3  22
HETATM   22  C13   D T2601     272.281 225.894 228.829  1.00 46.23     0.085 A 
HETATM   23  C14   D T2601     271.716 226.120 230.103  1.00 47.02     0.019 A 
HETATM   24  C15   D T2601     270.399 225.647 230.402  1.00 48.51    -0.001 A 
HETATM   25  C16   D T2601     269.613 224.932 229.423  1.00 46.86     0.015 A 
HETATM   26  C17   D T2601     270.204 224.697 228.108  1.00 48.59     0.071 A 
HETATM   27  C18   D T2601     271.512 225.182 227.854  1.00 47.76     0.023 A 
BRANCH  25  28
HETATM   28  C20   D T2601     268.201 224.463 229.838  1.00 47.69     0.277 C 
BRANCH  28  29
HETATM   29  N3    D T2601     268.200 223.314 230.748  1.00 53.58     0.146 N 
HETATM   30  C21   D T2601     267.561 223.631 232.050  1.00 51.34     0.286 C 
HETATM   31  C22   D T2601     267.769 222.465 233.038  1.00 47.99     0.286 C 
HETATM   32  N4    D T2601     267.122 221.251 232.516  1.00 50.46     0.143 N 
HETATM   33  C23   D T2601     267.623 220.918 231.149  1.00 49.01     0.286 C 
HETATM   34  C25   D T2601     267.260 220.147 233.450  1.00 50.12     0.285 C 
HETATM   35  C24   D T2601     267.525 222.135 230.178  1.00 52.37     0.286 C 
ENDBRANCH  28  29
ENDBRANCH  25  28
BRANCH  26  36
HETATM   36  C19   D T2601     269.520 223.969 226.948  1.00 53.84     0.419 C 
HETATM   37  F1    D T2601     268.395 224.565 226.642  1.00 57.02    -0.166 F 
HETATM   38  F2    D T2601     270.267 223.946 225.855  1.00 55.32    -0.166 F 
HETATM   39  F3    D T2601     269.277 222.705 227.283  1.00 54.82    -0.166 F 
ENDBRANCH  26  36
ENDBRANCH   3  22
TORSDOF 7
ENDMDL
