MODEL 1
REMARK VINA RESULT:      -4.0      0.000      0.000
REMARK  2 active torsions:
REMARK  status: ('A' for Active; 'I' for Inactive)
REMARK    1  A    between atoms: C5_4  and  O7_13 
REMARK    2  A    between atoms: C8_10  and  O7_13 
ROOT
HETATM    1  O7    D T 502      14.418 -23.408  15.712  1.00 24.96    -0.304 OA
ENDROOT
BRANCH   1   2
HETATM    2  C5    D T 502      14.155 -23.382  17.048  1.00 24.69     0.125 A 
HETATM    3  C6    D T 502      12.891 -22.994  17.467  1.00 25.95     0.154 A 
HETATM    4  C1    D T 502      12.556 -23.032  18.840  1.00 27.27     0.041 A 
HETATM    5  O17   D T 502      11.998 -22.546  16.522  1.00 23.71    -0.188 OA
HETATM    6  C2    D T 502      13.510 -23.462  19.771  1.00 21.79     0.060 A 
HETATM    7  C3    D T 502      14.783 -23.841  19.345  1.00 27.99     0.014 A 
HETATM    8 CL14   D T 502      13.115 -23.536  21.439  1.00  9.14    -0.082 Cl
HETATM    9  C4    D T 502      15.111 -23.807  17.972  1.00 29.15     0.028 A 
ENDBRANCH   1   2
BRANCH   1  10
HETATM   10  C8    D T 502      14.658 -24.607  15.106  1.00 22.86     0.111 A 
HETATM   11  C9    D T 502      15.927 -24.803  14.487  1.00 16.25     0.081 A 
HETATM   12  C10   D T 502      16.198 -26.018  13.835  1.00 16.94     0.025 A 
HETATM   13 CL16   D T 502      17.123 -23.553  14.495  1.00  2.00    -0.080 Cl
HETATM   14  C11   D T 502      15.204 -27.032  13.797  1.00 21.46     0.059 A 
HETATM   15  C12   D T 502      13.942 -26.835  14.414  1.00 21.21     0.013 A 
HETATM   16 CL15   D T 502      15.531 -28.515  12.970  1.00  9.25    -0.082 Cl
HETATM   17  C13   D T 502      13.670 -25.620  15.069  1.00 21.49     0.026 A 
ENDBRANCH   1  10
TORSDOF 2
ENDMDL
MODEL 2
REMARK VINA RESULT:      -4.0      1.395      5.806
REMARK  2 active torsions:
REMARK  status: ('A' for Active; 'I' for Inactive)
REMARK    1  A    between atoms: C5_4  and  O7_13 
REMARK    2  A    between atoms: C8_10  and  O7_13 
ROOT
HETATM    1  O7    D T 502      14.246 -23.035  16.437  1.00 24.96    -0.304 OA
ENDROOT
BRANCH   1   2
HETATM    2  C5    D T 502      14.450 -24.064  15.569  1.00 24.69     0.125 A 
HETATM    3  C6    D T 502      15.682 -24.166  14.941  1.00 25.95     0.154 A 
HETATM    4  C1    D T 502      15.959 -25.265  14.095  1.00 27.27     0.041 A 
HETATM    5  O17   D T 502      16.601 -23.162  15.136  1.00 23.71    -0.188 OA
HETATM    6  C2    D T 502      14.979 -26.247  13.897  1.00 21.79     0.060 A 
HETATM    7  C3    D T 502      13.737 -26.133  14.523  1.00 27.99     0.014 A 
HETATM    8 CL14   D T 502      15.304 -27.599  12.892  1.00  9.14    -0.082 Cl
HETATM    9  C4    D T 502      13.468 -25.037  15.371  1.00 29.15     0.028 A 
ENDBRANCH   1   2
BRANCH   1  10
HETATM   10  C8    D T 502      13.678 -23.293  17.651  1.00 22.86     0.111 A 
HETATM   11  C9    D T 502      14.519 -23.775  18.696  1.00 16.25     0.081 A 
HETATM   12  C10   D T 502      13.962 -24.071  19.952  1.00 16.94     0.025 A 
HETATM   13 CL16   D T 502      16.209 -24.036  18.429  1.00  2.00    -0.080 Cl
HETATM   14  C11   D T 502      12.569 -23.891  20.163  1.00 21.46     0.059 A 
HETATM   15  C12   D T 502      11.733 -23.411  19.121  1.00 21.21     0.013 A 
HETATM   16 CL15   D T 502      11.881 -24.282  21.700  1.00  9.25    -0.082 Cl
HETATM   17  C13   D T 502      12.290 -23.112  17.864  1.00 21.49     0.026 A 
ENDBRANCH   1  10
TORSDOF 2
ENDMDL
MODEL 3
REMARK VINA RESULT:      -3.7     25.651     26.791
REMARK  2 active torsions:
REMARK  status: ('A' for Active; 'I' for Inactive)
REMARK    1  A    between atoms: C5_4  and  O7_13 
REMARK    2  A    between atoms: C8_10  and  O7_13 
ROOT
HETATM    1  O7    D T 502      -5.956 -15.284   3.819  1.00 24.96    -0.304 OA
ENDROOT
BRANCH   1   2
HETATM    2  C5    D T 502      -6.301 -14.871   2.569  1.00 24.69     0.125 A 
HETATM    3  C6    D T 502      -5.636 -13.782   2.024  1.00 25.95     0.154 A 
HETATM    4  C1    D T 502      -5.910 -13.374   0.698  1.00 27.27     0.041 A 
HETATM    5  O17   D T 502      -4.739 -13.101   2.813  1.00 23.71    -0.188 OA
HETATM    6  C2    D T 502      -6.858 -14.077  -0.057  1.00 21.79     0.060 A 
HETATM    7  C3    D T 502      -7.531 -15.164   0.499  1.00 27.99     0.014 A 
HETATM    8 CL14   D T 502      -7.189 -13.610  -1.676  1.00  9.14    -0.082 Cl
HETATM    9  C4    D T 502      -7.250 -15.571   1.821  1.00 29.15     0.028 A 
ENDBRANCH   1   2
BRANCH   1  10
HETATM   10  C8    D T 502      -6.298 -16.543   4.221  1.00 22.86     0.111 A 
HETATM   11  C9    D T 502      -7.278 -16.676   5.248  1.00 16.25     0.081 A 
HETATM   12  C10   D T 502      -7.637 -17.957   5.700  1.00 16.94     0.025 A 
HETATM   13 CL16   D T 502      -8.001 -15.281   5.973  1.00  2.00    -0.080 Cl
HETATM   14  C11   D T 502      -7.018 -19.102   5.131  1.00 21.46     0.059 A 
HETATM   15  C12   D T 502      -6.045 -18.967   4.108  1.00 21.21     0.013 A 
HETATM   16 CL15   D T 502      -7.442 -20.675   5.708  1.00  9.25    -0.082 Cl
HETATM   17  C13   D T 502      -5.685 -17.686   3.653  1.00 21.49     0.026 A 
ENDBRANCH   1  10
TORSDOF 2
ENDMDL
MODEL 4
REMARK VINA RESULT:      -3.5     25.322     26.530
REMARK  2 active torsions:
REMARK  status: ('A' for Active; 'I' for Inactive)
REMARK    1  A    between atoms: C5_4  and  O7_13 
REMARK    2  A    between atoms: C8_10  and  O7_13 
ROOT
HETATM    1  O7    D T 502      -6.960 -18.690   1.381  1.00 24.96    -0.304 OA
ENDROOT
BRANCH   1   2
HETATM    2  C5    D T 502      -6.164 -19.569   0.714  1.00 24.69     0.125 A 
HETATM    3  C6    D T 502      -6.478 -20.920   0.766  1.00 25.95     0.154 A 
HETATM    4  C1    D T 502      -5.721 -21.853   0.022  1.00 27.27     0.041 A 
HETATM    5  O17   D T 502      -7.511 -21.319   1.580  1.00 23.71    -0.188 OA
HETATM    6  C2    D T 502      -4.654 -21.404  -0.767  1.00 21.79     0.060 A 
HETATM    7  C3    D T 502      -4.336 -20.047  -0.808  1.00 27.99     0.014 A 
HETATM    8 CL14   D T 502      -3.738 -22.520  -1.695  1.00  9.14    -0.082 Cl
HETATM    9  C4    D T 502      -5.097 -19.118  -0.067  1.00 29.15     0.028 A 
ENDBRANCH   1   2
BRANCH   1  10
HETATM   10  C8    D T 502      -6.460 -17.467   1.721  1.00 22.86     0.111 A 
HETATM   11  C9    D T 502      -5.836 -17.328   2.995  1.00 16.25     0.081 A 
HETATM   12  C10   D T 502      -5.331 -16.076   3.385  1.00 16.94     0.025 A 
HETATM   13 CL16   D T 502      -5.728 -18.669   4.083  1.00  2.00    -0.080 Cl
HETATM   14  C11   D T 502      -5.450 -14.965   2.508  1.00 21.46     0.059 A 
HETATM   15  C12   D T 502      -6.071 -15.106   1.240  1.00 21.21     0.013 A 
HETATM   16 CL15   D T 502      -4.851 -13.421   3.002  1.00  9.25    -0.082 Cl
HETATM   17  C13   D T 502      -6.576 -16.359   0.847  1.00 21.49     0.026 A 
ENDBRANCH   1  10
TORSDOF 2
ENDMDL
MODEL 5
REMARK VINA RESULT:      -3.3      2.394      6.004
REMARK  2 active torsions:
REMARK  status: ('A' for Active; 'I' for Inactive)
REMARK    1  A    between atoms: C5_4  and  O7_13 
REMARK    2  A    between atoms: C8_10  and  O7_13 
ROOT
HETATM    1  O7    D T 502      13.309 -24.703  17.424  1.00 24.96    -0.304 OA
ENDROOT
BRANCH   1   2
HETATM    2  C5    D T 502      13.493 -25.878  16.761  1.00 24.69     0.125 A 
HETATM    3  C6    D T 502      13.600 -25.849  15.378  1.00 25.95     0.154 A 
HETATM    4  C1    D T 502      13.872 -27.038  14.663  1.00 27.27     0.041 A 
HETATM    5  O17   D T 502      13.402 -24.653  14.732  1.00 23.71    -0.188 OA
HETATM    6  C2    D T 502      14.032 -28.242  15.362  1.00 21.79     0.060 A 
HETATM    7  C3    D T 502      13.913 -28.267  16.751  1.00 27.99     0.014 A 
HETATM    8 CL14   D T 502      14.384 -29.692  14.513  1.00  9.14    -0.082 Cl
HETATM    9  C4    D T 502      13.647 -27.077  17.461  1.00 29.15     0.028 A 
ENDBRANCH   1   2
BRANCH   1  10
HETATM   10  C8    D T 502      14.216 -24.324  18.370  1.00 22.86     0.111 A 
HETATM   11  C9    D T 502      13.771 -24.210  19.719  1.00 16.25     0.081 A 
HETATM   12  C10   D T 502      14.674 -23.800  20.714  1.00 16.94     0.025 A 
HETATM   13 CL16   D T 502      12.123 -24.529  20.141  1.00  2.00    -0.080 Cl
HETATM   14  C11   D T 502      16.019 -23.503  20.363  1.00 21.46     0.059 A 
HETATM   15  C12   D T 502      16.460 -23.619  19.020  1.00 21.21     0.013 A 
HETATM   16 CL15   D T 502      17.121 -22.973  21.584  1.00  9.25    -0.082 Cl
HETATM   17  C13   D T 502      15.557 -24.030  18.023  1.00 21.49     0.026 A 
ENDBRANCH   1  10
TORSDOF 2
ENDMDL
MODEL 6
REMARK VINA RESULT:      -3.3     16.596     17.784
REMARK  2 active torsions:
REMARK  status: ('A' for Active; 'I' for Inactive)
REMARK    1  A    between atoms: C5_4  and  O7_13 
REMARK    2  A    between atoms: C8_10  and  O7_13 
ROOT
HETATM    1  O7    D T 502      14.615  -5.778  14.611  1.00 24.96    -0.304 OA
ENDROOT
BRANCH   1   2
HETATM    2  C5    D T 502      13.612  -6.083  15.478  1.00 24.69     0.125 A 
HETATM    3  C6    D T 502      13.851  -5.957  16.839  1.00 25.95     0.154 A 
HETATM    4  C1    D T 502      12.809  -6.186  17.767  1.00 27.27     0.041 A 
HETATM    5  O17   D T 502      15.124  -5.639  17.253  1.00 23.71    -0.188 OA
HETATM    6  C2    D T 502      11.537  -6.543  17.301  1.00 21.79     0.060 A 
HETATM    7  C3    D T 502      11.305  -6.678  15.932  1.00 27.99     0.014 A 
HETATM    8 CL14   D T 502      10.254  -6.804  18.411  1.00  9.14    -0.082 Cl
HETATM    9  C4    D T 502      12.347  -6.442  15.009  1.00 29.15     0.028 A 
ENDBRANCH   1   2
BRANCH   1  10
HETATM   10  C8    D T 502      15.174  -6.775  13.865  1.00 22.86     0.111 A 
HETATM   11  C9    D T 502      14.884  -6.812  12.469  1.00 16.25     0.081 A 
HETATM   12  C10   D T 502      15.426  -7.838  11.677  1.00 16.94     0.025 A 
HETATM   13 CL16   D T 502      13.845  -5.633  11.746  1.00  2.00    -0.080 Cl
HETATM   14  C11   D T 502      16.251  -8.828  12.276  1.00 21.46     0.059 A 
HETATM   15  C12   D T 502      16.539  -8.789  13.665  1.00 21.21     0.013 A 
HETATM   16 CL15   D T 502      16.894 -10.105  11.304  1.00  9.25    -0.082 Cl
HETATM   17  C13   D T 502      15.999  -7.761  14.459  1.00 21.49     0.026 A 
ENDBRANCH   1  10
TORSDOF 2
ENDMDL
MODEL 7
REMARK VINA RESULT:      -3.3     15.133     17.345
REMARK  2 active torsions:
REMARK  status: ('A' for Active; 'I' for Inactive)
REMARK    1  A    between atoms: C5_4  and  O7_13 
REMARK    2  A    between atoms: C8_10  and  O7_13 
ROOT
HETATM    1  O7    D T 502      13.574 -23.436  -0.877  1.00 24.96    -0.304 OA
ENDROOT
BRANCH   1   2
HETATM    2  C5    D T 502      13.984 -22.147  -1.021  1.00 24.69     0.125 A 
HETATM    3  C6    D T 502      14.620 -21.782  -2.199  1.00 25.95     0.154 A 
HETATM    4  C1    D T 502      14.988 -20.434  -2.418  1.00 27.27     0.041 A 
HETATM    5  O17   D T 502      14.906 -22.762  -3.119  1.00 23.71    -0.188 OA
HETATM    6  C2    D T 502      14.707 -19.474  -1.437  1.00 21.79     0.060 A 
HETATM    7  C3    D T 502      14.078 -19.849  -0.250  1.00 27.99     0.014 A 
HETATM    8 CL14   D T 502      15.127 -17.830  -1.694  1.00  9.14    -0.082 Cl
HETATM    9  C4    D T 502      13.707 -21.194  -0.038  1.00 29.15     0.028 A 
ENDBRANCH   1   2
BRANCH   1  10
HETATM   10  C8    D T 502      14.243 -24.254  -0.012  1.00 22.86     0.111 A 
HETATM   11  C9    D T 502      13.611 -25.468   0.388  1.00 16.25     0.081 A 
HETATM   12  C10   D T 502      14.264 -26.321   1.294  1.00 16.94     0.025 A 
HETATM   13 CL16   D T 502      12.037 -25.885  -0.195  1.00  2.00    -0.080 Cl
HETATM   14  C11   D T 502      15.541 -25.962   1.802  1.00 21.46     0.059 A 
HETATM   15  C12   D T 502      16.168 -24.754   1.401  1.00 21.21     0.013 A 
HETATM   16 CL15   D T 502      16.330 -27.001   2.937  1.00  9.25    -0.082 Cl
HETATM   17  C13   D T 502      15.517 -23.900   0.493  1.00 21.49     0.026 A 
ENDBRANCH   1  10
TORSDOF 2
ENDMDL
MODEL 8
REMARK VINA RESULT:      -3.3     16.546     18.466
REMARK  2 active torsions:
REMARK  status: ('A' for Active; 'I' for Inactive)
REMARK    1  A    between atoms: C5_4  and  O7_13 
REMARK    2  A    between atoms: C8_10  and  O7_13 
ROOT
HETATM    1  O7    D T 502      14.746  -5.845  14.538  1.00 24.96    -0.304 OA
ENDROOT
BRANCH   1   2
HETATM    2  C5    D T 502      15.222  -6.891  13.808  1.00 24.69     0.125 A 
HETATM    3  C6    D T 502      15.010  -6.892  12.437  1.00 25.95     0.154 A 
HETATM    4  C1    D T 502      15.559  -7.920  11.636  1.00 27.27     0.041 A 
HETATM    5  O17   D T 502      14.234  -5.896  11.894  1.00 23.71    -0.188 OA
HETATM    6  C2    D T 502      16.314  -8.935  12.237  1.00 21.79     0.060 A 
HETATM    7  C3    D T 502      16.515  -8.934  13.618  1.00 27.99     0.014 A 
HETATM    8 CL14   D T 502      17.006 -10.179  11.279  1.00  9.14    -0.082 Cl
HETATM    9  C4    D T 502      15.970  -7.903  14.413  1.00 29.15     0.028 A 
ENDBRANCH   1   2
BRANCH   1  10
HETATM   10  C8    D T 502      13.707  -6.054  15.398  1.00 22.86     0.111 A 
HETATM   11  C9    D T 502      13.959  -5.938  16.796  1.00 16.25     0.081 A 
HETATM   12  C10   D T 502      12.916  -6.168  17.709  1.00 16.94     0.025 A 
HETATM   13 CL16   D T 502      15.541  -5.556  17.385  1.00  2.00    -0.080 Cl
HETATM   14  C11   D T 502      11.626  -6.516  17.229  1.00 21.46     0.059 A 
HETATM   15  C12   D T 502      11.376  -6.630  15.837  1.00 21.21     0.013 A 
HETATM   16 CL15   D T 502      10.351  -6.825  18.355  1.00  9.25    -0.082 Cl
HETATM   17  C13   D T 502      12.419  -6.398  14.921  1.00 21.49     0.026 A 
ENDBRANCH   1  10
TORSDOF 2
ENDMDL
MODEL 9
REMARK VINA RESULT:      -3.2     25.118     26.048
REMARK  2 active torsions:
REMARK  status: ('A' for Active; 'I' for Inactive)
REMARK    1  A    between atoms: C5_4  and  O7_13 
REMARK    2  A    between atoms: C8_10  and  O7_13 
ROOT
HETATM    1  O7    D T 502      -7.021 -18.883   1.658  1.00 24.96    -0.304 OA
ENDROOT
BRANCH   1   2
HETATM    2  C5    D T 502      -6.591 -17.637   1.997  1.00 24.69     0.125 A 
HETATM    3  C6    D T 502      -5.807 -17.492   3.132  1.00 25.95     0.154 A 
HETATM    4  C1    D T 502      -5.275 -16.226   3.470  1.00 27.27     0.041 A 
HETATM    5  O17   D T 502      -5.594 -18.595   3.925  1.00 23.71    -0.188 OA
HETATM    6  C2    D T 502      -5.547 -15.123   2.652  1.00 21.79     0.060 A 
HETATM    7  C3    D T 502      -6.345 -15.272   1.517  1.00 27.99     0.014 A 
HETATM    8 CL14   D T 502      -4.892 -13.583   3.034  1.00  9.14    -0.082 Cl
HETATM    9  C4    D T 502      -6.869 -16.538   1.180  1.00 29.15     0.028 A 
ENDBRANCH   1   2
BRANCH   1  10
HETATM   10  C8    D T 502      -6.254 -19.648   0.829  1.00 22.86     0.111 A 
HETATM   11  C9    D T 502      -6.498 -21.052   0.794  1.00 16.25     0.081 A 
HETATM   12  C10   D T 502      -5.711 -21.871  -0.032  1.00 16.94     0.025 A 
HETATM   13 CL16   D T 502      -7.723 -21.766   1.786  1.00  2.00    -0.080 Cl
HETATM   14  C11   D T 502      -4.680 -21.292  -0.820  1.00 21.46     0.059 A 
HETATM   15  C12   D T 502      -4.440 -19.894  -0.785  1.00 21.21     0.013 A 
HETATM   16 CL15   D T 502      -3.696 -22.306  -1.816  1.00  9.25    -0.082 Cl
HETATM   17  C13   D T 502      -5.228 -19.072   0.040  1.00 21.49     0.026 A 
ENDBRANCH   1  10
TORSDOF 2
ENDMDL
