MODEL 1
REMARK VINA RESULT:      -9.2      0.000      0.000
REMARK  18 active torsions:
REMARK  status: ('A' for Active; 'I' for Inactive)
REMARK    1  A    between atoms: C2_2  and  C6_6 
REMARK    2  A    between atoms: C6_6  and  O7_7 
REMARK    3  A    between atoms: O7_7  and  C10_8 
REMARK       I    between atoms: C10_8  and  N11_10 
REMARK    4  A    between atoms: N11_10  and  C12_11 
REMARK    5  A    between atoms: C12_11  and  C13_12 
REMARK    6  A    between atoms: C12_11  and  C26_15 
REMARK    7  A    between atoms: C13_12  and  C14_13 
REMARK    8  A    between atoms: C14_13  and  C15_14 
REMARK    9  A    between atoms: C15_14  and  C44_23 
REMARK   10  A    between atoms: C15_14  and  N58_30 
REMARK   11  A    between atoms: C26_15  and  C28_16 
REMARK   12  A    between atoms: C44_23  and  C45_24 
REMARK       I    between atoms: N58_30  and  C18_33 
REMARK   13  A    between atoms: N20_31  and  C19_32 
REMARK       I    between atoms: N20_31  and  C21_38 
REMARK   14  A    between atoms: C19_32  and  C18_33 
REMARK   15  A    between atoms: C19_32  and  C62_35 
REMARK       I    between atoms: C21_38  and  N74_39 
REMARK   16  A    between atoms: N74_39  and  C75_40 
REMARK   17  A    between atoms: C75_40  and  C77_42 
REMARK   18  A    between atoms: C82_45  and  C85_47 
ROOT
HETATM    1  C15   D T 401      -0.663  -2.054  10.867  1.00 59.81     0.113 C 
ENDROOT
BRANCH   1   2
HETATM    2  C14   D T 401      -0.737  -0.558  11.203  1.00 58.93     0.060 C 
BRANCH   2   3
HETATM    3  C13   D T 401      -1.328   0.374  10.119  1.00 59.07     0.177 C 
HETATM    4  O41   D T 401      -0.331   0.583   9.125  1.00 58.43    -0.221 OA
BRANCH   3   5
HETATM    5  C12   D T 401      -1.786   1.747  10.618  1.00 59.52     0.143 C 
BRANCH   5   6
HETATM    6  N11   D T 401      -0.692   2.678  10.391  1.00 58.37    -0.211 NA
HETATM    7  C10   D T 401       0.011   3.098  11.429  1.00 59.08     0.384 C 
HETATM    8  O24   D T 401      -0.311   2.786  12.574  1.00 59.19    -0.236 OA
BRANCH   7   9
HETATM    9  O7    D T 401       1.193   3.919  11.214  1.00 58.33    -0.278 OA
BRANCH   9  10
HETATM   10  C6    D T 401       2.446   3.309  11.463  1.00 59.85     0.188 C 
BRANCH  10  11
HETATM   11  C2    D T 401       3.069   3.016  10.137  1.00 62.87     0.058 A 
HETATM   12  C1    D T 401       3.006   1.938   9.261  1.00 63.59     0.104 A 
HETATM   13  N5    D T 401       3.813   2.145   8.159  1.00 65.21    -0.235 NA
HETATM   14  C4    D T 401       4.506   3.320   8.118  1.00 64.03     0.134 A 
HETATM   15  S3    D T 401       4.158   4.228   9.544  1.00 63.44    -0.066 SA
ENDBRANCH  10  11
ENDBRANCH   9  10
ENDBRANCH   7   9
ENDBRANCH   5   6
BRANCH   5  16
HETATM   16  C26   D T 401      -3.096   2.287  10.006  1.00 59.99     0.053 C 
BRANCH  16  17
HETATM   17  C28   D T 401      -4.207   1.242  10.029  1.00 61.27    -0.020 A 
HETATM   18  C31   D T 401      -4.728   0.782  11.252  1.00 62.70    -0.004 A 
HETATM   19  C32   D T 401      -5.755  -0.183  11.294  1.00 62.25    -0.000 A 
HETATM   20  C33   D T 401      -6.290  -0.700  10.114  1.00 60.89    -0.000 A 
HETATM   21  C34   D T 401      -5.781  -0.253   8.891  1.00 61.83    -0.000 A 
HETATM   22  C35   D T 401      -4.742   0.710   8.845  1.00 61.69    -0.004 A 
ENDBRANCH  16  17
ENDBRANCH   5  16
ENDBRANCH   3   5
ENDBRANCH   2   3
ENDBRANCH   1   2
BRANCH   1  23
HETATM   23  C44   D T 401      -1.387  -2.877  11.947  1.00 61.03     0.051 C 
BRANCH  23  24
HETATM   24  C45   D T 401      -2.510  -3.789  11.465  1.00 62.14    -0.020 A 
HETATM   25  C48   D T 401      -3.576  -3.156  10.827  1.00 62.95    -0.004 A 
HETATM   26  C49   D T 401      -4.663  -3.872  10.301  1.00 63.23    -0.000 A 
HETATM   27  C50   D T 401      -4.684  -5.260  10.405  1.00 64.66    -0.000 A 
HETATM   28  C51   D T 401      -3.618  -5.915  11.040  1.00 64.50    -0.000 A 
HETATM   29  C52   D T 401      -2.532  -5.194  11.563  1.00 63.39    -0.004 A 
ENDBRANCH  23  24
ENDBRANCH   1  23
BRANCH   1  30
HETATM   30  N58   D T 401       0.680  -2.564  10.882  1.00 60.63    -0.238 NA
HETATM   31  C18   D T 401       1.190  -3.526  10.132  1.00 62.24     0.274 C 
HETATM   32  O61   D T 401       0.654  -4.156   9.220  1.00 61.50    -0.268 OA
BRANCH  31  33
HETATM   33  C19   D T 401       2.590  -3.808  10.563  1.00 64.75     0.188 C 
BRANCH  33  34
HETATM   34  N20   D T 401       2.675  -5.173  11.040  1.00 65.69    -0.211 NA
HETATM   35  C21   D T 401       2.738  -5.423  12.322  1.00 66.79     0.343 C 
HETATM   36  N74   D T 401       3.464  -6.443  12.746  1.00 71.41    -0.294 N 
HETATM   37  O76   D T 401       2.274  -4.654  13.123  1.00 67.85    -0.245 OA
HETATM   38  C95   D T 401       4.695  -6.912  12.100  1.00 70.78     0.131 C 
BRANCH  36  39
HETATM   39  C75   D T 401       3.114  -7.152  13.965  1.00 74.33     0.152 C 
BRANCH  39  40
HETATM   40  C77   D T 401       2.221  -8.281  13.564  1.00 76.44     0.088 A 
HETATM   41  C80   D T 401       2.549  -9.635  13.701  1.00 78.25     0.053 A 
HETATM   42  S81   D T 401       1.240 -10.611  13.133  1.00 82.00    -0.070 SA
HETATM   43  C82   D T 401       0.288  -9.201  12.736  1.00 80.73     0.088 A 
HETATM   44  N83   D T 401       0.974  -8.060  13.041  1.00 78.96    -0.245 NA
BRANCH  43  45
HETATM   45  C85   D T 401      -1.067  -9.415  12.164  1.00 81.61     0.047 C 
HETATM   46  C86   D T 401      -1.210  -8.750  10.790  1.00 81.16     0.007 C 
HETATM   47  C90   D T 401      -2.121  -8.927  13.173  1.00 82.31     0.007 C 
ENDBRANCH  43  45
ENDBRANCH  39  40
ENDBRANCH  36  39
ENDBRANCH  33  34
BRANCH  33  48
HETATM   48  C62   D T 401       3.583  -3.621   9.398  1.00 64.68     0.032 C 
HETATM   49  C64   D T 401       4.690  -2.641   9.748  1.00 64.29     0.003 C 
HETATM   50  C68   D T 401       4.163  -4.950   8.921  1.00 63.77     0.003 C 
ENDBRANCH  33  48
ENDBRANCH  31  33
ENDBRANCH   1  30
TORSDOF 18
ENDMDL
MODEL 2
REMARK VINA RESULT:      -9.1      2.610      7.955
REMARK  18 active torsions:
REMARK  status: ('A' for Active; 'I' for Inactive)
REMARK    1  A    between atoms: C2_2  and  C6_6 
REMARK    2  A    between atoms: C6_6  and  O7_7 
REMARK    3  A    between atoms: O7_7  and  C10_8 
REMARK       I    between atoms: C10_8  and  N11_10 
REMARK    4  A    between atoms: N11_10  and  C12_11 
REMARK    5  A    between atoms: C12_11  and  C13_12 
REMARK    6  A    between atoms: C12_11  and  C26_15 
REMARK    7  A    between atoms: C13_12  and  C14_13 
REMARK    8  A    between atoms: C14_13  and  C15_14 
REMARK    9  A    between atoms: C15_14  and  C44_23 
REMARK   10  A    between atoms: C15_14  and  N58_30 
REMARK   11  A    between atoms: C26_15  and  C28_16 
REMARK   12  A    between atoms: C44_23  and  C45_24 
REMARK       I    between atoms: N58_30  and  C18_33 
REMARK   13  A    between atoms: N20_31  and  C19_32 
REMARK       I    between atoms: N20_31  and  C21_38 
REMARK   14  A    between atoms: C19_32  and  C18_33 
REMARK   15  A    between atoms: C19_32  and  C62_35 
REMARK       I    between atoms: C21_38  and  N74_39 
REMARK   16  A    between atoms: N74_39  and  C75_40 
REMARK   17  A    between atoms: C75_40  and  C77_42 
REMARK   18  A    between atoms: C82_45  and  C85_47 
ROOT
HETATM    1  C15   D T 401      -0.534  -0.007  10.667  1.00 59.81     0.113 C 
ENDROOT
BRANCH   1   2
HETATM    2  C14   D T 401      -0.450  -1.500  10.321  1.00 58.93     0.060 C 
BRANCH   2   3
HETATM    3  C13   D T 401      -0.596  -2.499  11.493  1.00 59.07     0.177 C 
HETATM    4  O41   D T 401       0.652  -3.162  11.666  1.00 58.43    -0.221 OA
BRANCH   3   5
HETATM    5  C12   D T 401      -1.673  -3.572  11.306  1.00 59.52     0.143 C 
BRANCH   5   6
HETATM    6  N11   D T 401      -1.173  -4.798  11.907  1.00 58.37    -0.211 NA
HETATM    7  C10   D T 401      -1.199  -5.911  11.196  1.00 59.08     0.384 C 
HETATM    8  O24   D T 401      -1.724  -5.935  10.083  1.00 59.19    -0.236 OA
BRANCH   7   9
HETATM    9  O7    D T 401      -0.580  -7.119  11.723  1.00 58.33    -0.278 OA
BRANCH   9  10
HETATM   10  C6    D T 401      -0.965  -8.343  11.126  1.00 59.85     0.188 C 
BRANCH  10  11
HETATM   11  C2    D T 401      -1.537  -9.203  12.206  1.00 62.87     0.058 A 
HETATM   12  C1    D T 401      -1.090 -10.342  12.868  1.00 63.59     0.104 A 
HETATM   13  N5    D T 401      -2.027 -10.785  13.781  1.00 65.21    -0.235 NA
HETATM   14  C4    D T 401      -3.182 -10.064  13.875  1.00 64.03     0.134 A 
HETATM   15  S3    D T 401      -3.123  -8.759  12.747  1.00 63.44    -0.066 SA
ENDBRANCH  10  11
ENDBRANCH   9  10
ENDBRANCH   7   9
ENDBRANCH   5   6
BRANCH   5  16
HETATM   16  C26   D T 401      -3.073  -3.227  11.856  1.00 59.99     0.053 C 
BRANCH  16  17
HETATM   17  C28   D T 401      -4.147  -3.320  10.778  1.00 61.27    -0.020 A 
HETATM   18  C31   D T 401      -4.488  -2.191  10.011  1.00 62.70    -0.004 A 
HETATM   19  C32   D T 401      -5.478  -2.257   9.010  1.00 62.25    -0.000 A 
HETATM   20  C33   D T 401      -6.140  -3.457   8.746  1.00 60.89    -0.000 A 
HETATM   21  C34   D T 401      -5.811  -4.587   9.500  1.00 61.83    -0.000 A 
HETATM   22  C35   D T 401      -4.824  -4.521  10.515  1.00 61.69    -0.004 A 
ENDBRANCH  16  17
ENDBRANCH   5  16
ENDBRANCH   3   5
ENDBRANCH   2   3
ENDBRANCH   1   2
BRANCH   1  23
HETATM   23  C44   D T 401      -1.111   0.783   9.479  1.00 61.03     0.051 C 
BRANCH  23  24
HETATM   24  C45   D T 401      -2.611   1.058   9.512  1.00 62.14    -0.020 A 
HETATM   25  C48   D T 401      -3.248   1.103   8.273  1.00 62.95    -0.004 A 
HETATM   26  C49   D T 401      -4.630   1.313   8.151  1.00 63.23    -0.000 A 
HETATM   27  C50   D T 401      -5.402   1.472   9.299  1.00 64.66    -0.000 A 
HETATM   28  C51   D T 401      -4.779   1.425  10.555  1.00 64.50    -0.000 A 
HETATM   29  C52   D T 401      -3.395   1.212  10.671  1.00 63.39    -0.004 A 
ENDBRANCH  23  24
ENDBRANCH   1  23
BRANCH   1  30
HETATM   30  N58   D T 401       0.755   0.589  10.889  1.00 60.63    -0.238 NA
HETATM   31  C18   D T 401       1.295   0.948  12.041  1.00 62.24     0.274 C 
HETATM   32  O61   D T 401       0.847   0.801  13.179  1.00 61.50    -0.268 OA
BRANCH  31  33
HETATM   33  C19   D T 401       2.598   1.629  11.792  1.00 64.75     0.188 C 
BRANCH  33  34
HETATM   34  N20   D T 401       3.374   0.843  10.855  1.00 65.69    -0.211 NA
HETATM   35  C21   D T 401       4.652   0.651  11.052  1.00 66.79     0.343 C 
HETATM   36  N74   D T 401       5.463   0.587  10.010  1.00 71.41    -0.294 N 
HETATM   37  O76   D T 401       5.117   0.685  12.161  1.00 67.85    -0.245 OA
HETATM   38  C95   D T 401       5.273   1.331   8.761  1.00 70.78     0.131 C 
BRANCH  36  39
HETATM   39  C75   D T 401       6.681  -0.206  10.060  1.00 74.33     0.152 C 
BRANCH  39  40
HETATM   40  C77   D T 401       6.267  -1.611  10.352  1.00 76.44     0.088 A 
HETATM   41  C80   D T 401       6.789  -2.388  11.393  1.00 78.25     0.053 A 
HETATM   42  S81   D T 401       6.033  -3.943  11.393  1.00 82.00    -0.070 SA
HETATM   43  C82   D T 401       5.039  -3.522  10.020  1.00 80.73     0.088 A 
HETATM   44  N83   D T 401       5.303  -2.246   9.613  1.00 78.96    -0.245 NA
BRANCH  43  45
HETATM   45  C85   D T 401       4.087  -4.544   9.511  1.00 81.61     0.047 C 
HETATM   46  C86   D T 401       2.810  -3.897   8.957  1.00 81.16     0.007 C 
HETATM   47  C90   D T 401       3.800  -5.563  10.627  1.00 82.31     0.007 C 
ENDBRANCH  43  45
ENDBRANCH  39  40
ENDBRANCH  36  39
ENDBRANCH  33  34
BRANCH  33  48
HETATM   48  C62   D T 401       2.390   3.041  11.210  1.00 64.68     0.032 C 
HETATM   49  C64   D T 401       1.298   3.802  11.943  1.00 64.29     0.003 C 
HETATM   50  C68   D T 401       3.687   3.846  11.179  1.00 63.77     0.003 C 
ENDBRANCH  33  48
ENDBRANCH  31  33
ENDBRANCH   1  30
TORSDOF 18
ENDMDL
MODEL 3
REMARK VINA RESULT:      -8.8      2.881      6.544
REMARK  18 active torsions:
REMARK  status: ('A' for Active; 'I' for Inactive)
REMARK    1  A    between atoms: C2_2  and  C6_6 
REMARK    2  A    between atoms: C6_6  and  O7_7 
REMARK    3  A    between atoms: O7_7  and  C10_8 
REMARK       I    between atoms: C10_8  and  N11_10 
REMARK    4  A    between atoms: N11_10  and  C12_11 
REMARK    5  A    between atoms: C12_11  and  C13_12 
REMARK    6  A    between atoms: C12_11  and  C26_15 
REMARK    7  A    between atoms: C13_12  and  C14_13 
REMARK    8  A    between atoms: C14_13  and  C15_14 
REMARK    9  A    between atoms: C15_14  and  C44_23 
REMARK   10  A    between atoms: C15_14  and  N58_30 
REMARK   11  A    between atoms: C26_15  and  C28_16 
REMARK   12  A    between atoms: C44_23  and  C45_24 
REMARK       I    between atoms: N58_30  and  C18_33 
REMARK   13  A    between atoms: N20_31  and  C19_32 
REMARK       I    between atoms: N20_31  and  C21_38 
REMARK   14  A    between atoms: C19_32  and  C18_33 
REMARK   15  A    between atoms: C19_32  and  C62_35 
REMARK       I    between atoms: C21_38  and  N74_39 
REMARK   16  A    between atoms: N74_39  and  C75_40 
REMARK   17  A    between atoms: C75_40  and  C77_42 
REMARK   18  A    between atoms: C82_45  and  C85_47 
ROOT
HETATM    1  C15   D T 401      -0.205   0.599  10.551  1.00 59.81     0.113 C 
ENDROOT
BRANCH   1   2
HETATM    2  C14   D T 401      -0.419  -0.917  10.441  1.00 58.93     0.060 C 
BRANCH   2   3
HETATM    3  C13   D T 401      -1.043  -1.626  11.665  1.00 59.07     0.177 C 
HETATM    4  O41   D T 401      -0.052  -1.706  12.683  1.00 58.43    -0.221 OA
BRANCH   3   5
HETATM    5  C12   D T 401      -1.560  -3.044  11.404  1.00 59.52     0.143 C 
BRANCH   5   6
HETATM    6  N11   D T 401      -0.592  -3.970  11.970  1.00 58.37    -0.211 NA
HETATM    7  C10   D T 401      -0.145  -4.960  11.217  1.00 59.08     0.384 C 
HETATM    8  O24   D T 401      -0.607  -5.155  10.094  1.00 59.19    -0.236 OA
BRANCH   7   9
HETATM    9  O7    D T 401       0.924  -5.816  11.713  1.00 58.33    -0.278 OA
BRANCH   9  10
HETATM   10  C6    D T 401       2.058  -5.167  12.256  1.00 59.85     0.188 C 
BRANCH  10  11
HETATM   11  C2    D T 401       2.835  -4.598  11.114  1.00 62.87     0.058 A 
HETATM   12  C1    D T 401       3.472  -5.154  10.010  1.00 63.59     0.104 A 
HETATM   13  N5    D T 401       4.092  -4.181   9.251  1.00 65.21    -0.235 NA
HETATM   14  C4    D T 401       3.981  -2.894   9.693  1.00 64.03     0.134 A 
HETATM   15  S3    D T 401       3.067  -2.880  11.157  1.00 63.44    -0.066 SA
ENDBRANCH  10  11
ENDBRANCH   9  10
ENDBRANCH   7   9
ENDBRANCH   5   6
BRANCH   5  16
HETATM   16  C26   D T 401      -2.980  -3.353  11.927  1.00 59.99     0.053 C 
BRANCH  16  17
HETATM   17  C28   D T 401      -4.012  -3.351  10.804  1.00 61.27    -0.020 A 
HETATM   18  C31   D T 401      -4.603  -4.553  10.376  1.00 62.70    -0.004 A 
HETATM   19  C32   D T 401      -5.559  -4.572   9.340  1.00 62.25    -0.000 A 
HETATM   20  C33   D T 401      -5.952  -3.386   8.718  1.00 60.89    -0.000 A 
HETATM   21  C34   D T 401      -5.373  -2.184   9.133  1.00 61.83    -0.000 A 
HETATM   22  C35   D T 401      -4.405  -2.163  10.168  1.00 61.69    -0.004 A 
ENDBRANCH  16  17
ENDBRANCH   5  16
ENDBRANCH   3   5
ENDBRANCH   2   3
ENDBRANCH   1   2
BRANCH   1  23
HETATM   23  C44   D T 401      -0.909   1.322   9.389  1.00 61.03     0.051 C 
BRANCH  23  24
HETATM   24  C45   D T 401      -2.430   1.403   9.465  1.00 62.14    -0.020 A 
HETATM   25  C48   D T 401      -3.106   1.286   8.252  1.00 62.95    -0.004 A 
HETATM   26  C49   D T 401      -4.508   1.307   8.172  1.00 63.23    -0.000 A 
HETATM   27  C50   D T 401      -5.257   1.441   9.338  1.00 64.66    -0.000 A 
HETATM   28  C51   D T 401      -4.594   1.557  10.568  1.00 64.50    -0.000 A 
HETATM   29  C52   D T 401      -3.192   1.532  10.642  1.00 63.39    -0.004 A 
ENDBRANCH  23  24
ENDBRANCH   1  23
BRANCH   1  30
HETATM   30  N58   D T 401       1.174   0.981  10.414  1.00 60.63    -0.238 NA
HETATM   31  C18   D T 401       2.109   0.995  11.350  1.00 62.24     0.274 C 
HETATM   32  O61   D T 401       2.027   0.633  12.524  1.00 61.50    -0.268 OA
BRANCH  31  33
HETATM   33  C19   D T 401       3.366   1.569  10.791  1.00 64.75     0.188 C 
BRANCH  33  34
HETATM   34  N20   D T 401       4.339   0.509  10.624  1.00 65.69    -0.211 NA
HETATM   35  C21   D T 401       5.469   0.537  11.282  1.00 66.79     0.343 C 
HETATM   36  N74   D T 401       6.563   0.070  10.706  1.00 71.41    -0.294 N 
HETATM   37  O76   D T 401       5.555   1.116  12.333  1.00 67.85    -0.245 OA
HETATM   38  C95   D T 401       6.840   0.139   9.267  1.00 70.78     0.131 C 
BRANCH  36  39
HETATM   39  C75   D T 401       7.637  -0.505  11.500  1.00 74.33     0.152 C 
BRANCH  39  40
HETATM   40  C77   D T 401       7.236  -1.911  11.809  1.00 76.44     0.088 A 
HETATM   41  C80   D T 401       7.460  -3.001  10.960  1.00 78.25     0.053 A 
HETATM   42  S81   D T 401       6.860  -4.445  11.696  1.00 82.00    -0.070 SA
HETATM   43  C82   D T 401       6.334  -3.570  13.114  1.00 80.73     0.088 A 
HETATM   44  N83   D T 401       6.625  -2.242  12.990  1.00 78.96    -0.245 NA
BRANCH  43  45
HETATM   45  C85   D T 401       5.689  -4.342  14.208  1.00 81.61     0.047 C 
HETATM   46  C86   D T 401       5.395  -5.786  13.781  1.00 81.16     0.007 C 
HETATM   47  C90   D T 401       4.430  -3.593  14.677  1.00 82.31     0.007 C 
ENDBRANCH  43  45
ENDBRANCH  39  40
ENDBRANCH  36  39
ENDBRANCH  33  34
BRANCH  33  48
HETATM   48  C62   D T 401       3.118   2.242   9.427  1.00 64.68     0.032 C 
HETATM   49  C64   D T 401       3.591   3.685   9.411  1.00 64.29     0.003 C 
HETATM   50  C68   D T 401       3.740   1.453   8.277  1.00 63.77     0.003 C 
ENDBRANCH  33  48
ENDBRANCH  31  33
ENDBRANCH   1  30
TORSDOF 18
ENDMDL
MODEL 4
REMARK VINA RESULT:      -8.7      2.719      8.361
REMARK  18 active torsions:
REMARK  status: ('A' for Active; 'I' for Inactive)
REMARK    1  A    between atoms: C2_2  and  C6_6 
REMARK    2  A    between atoms: C6_6  and  O7_7 
REMARK    3  A    between atoms: O7_7  and  C10_8 
REMARK       I    between atoms: C10_8  and  N11_10 
REMARK    4  A    between atoms: N11_10  and  C12_11 
REMARK    5  A    between atoms: C12_11  and  C13_12 
REMARK    6  A    between atoms: C12_11  and  C26_15 
REMARK    7  A    between atoms: C13_12  and  C14_13 
REMARK    8  A    between atoms: C14_13  and  C15_14 
REMARK    9  A    between atoms: C15_14  and  C44_23 
REMARK   10  A    between atoms: C15_14  and  N58_30 
REMARK   11  A    between atoms: C26_15  and  C28_16 
REMARK   12  A    between atoms: C44_23  and  C45_24 
REMARK       I    between atoms: N58_30  and  C18_33 
REMARK   13  A    between atoms: N20_31  and  C19_32 
REMARK       I    between atoms: N20_31  and  C21_38 
REMARK   14  A    between atoms: C19_32  and  C18_33 
REMARK   15  A    between atoms: C19_32  and  C62_35 
REMARK       I    between atoms: C21_38  and  N74_39 
REMARK   16  A    between atoms: N74_39  and  C75_40 
REMARK   17  A    between atoms: C75_40  and  C77_42 
REMARK   18  A    between atoms: C82_45  and  C85_47 
ROOT
HETATM    1  C15   D T 401      -1.127   0.774  11.265  1.00 59.81     0.113 C 
ENDROOT
BRANCH   1   2
HETATM    2  C14   D T 401      -1.408  -0.486  10.434  1.00 58.93     0.060 C 
BRANCH   2   3
HETATM    3  C13   D T 401      -0.512  -1.718  10.706  1.00 59.07     0.177 C 
HETATM    4  O41   D T 401       0.330  -1.910   9.575  1.00 58.43    -0.221 OA
BRANCH   3   5
HETATM    5  C12   D T 401      -1.264  -3.028  10.959  1.00 59.52     0.143 C 
BRANCH   5   6
HETATM    6  N11   D T 401      -0.374  -3.900  11.709  1.00 58.37    -0.211 NA
HETATM    7  C10   D T 401      -0.020  -5.057  11.176  1.00 59.08     0.384 C 
HETATM    8  O24   D T 401      -0.507  -5.435  10.112  1.00 59.19    -0.236 OA
BRANCH   7   9
HETATM    9  O7    D T 401       0.975  -5.884  11.844  1.00 58.33    -0.278 OA
BRANCH   9  10
HETATM   10  C6    D T 401       2.082  -5.211  12.414  1.00 59.85     0.188 C 
BRANCH  10  11
HETATM   11  C2    D T 401       2.953  -4.757  11.288  1.00 62.87     0.058 A 
HETATM   12  C1    D T 401       3.599  -5.412  10.245  1.00 63.59     0.104 A 
HETATM   13  N5    D T 401       4.326  -4.525   9.475  1.00 65.21    -0.235 NA
HETATM   14  C4    D T 401       4.290  -3.213   9.851  1.00 64.03     0.134 A 
HETATM   15  S3    D T 401       3.310  -3.060  11.263  1.00 63.44    -0.066 SA
ENDBRANCH  10  11
ENDBRANCH   9  10
ENDBRANCH   7   9
ENDBRANCH   5   6
BRANCH   5  16
HETATM   16  C26   D T 401      -2.628  -2.900  11.669  1.00 59.99     0.053 C 
BRANCH  16  17
HETATM   17  C28   D T 401      -3.787  -3.263  10.746  1.00 61.27    -0.020 A 
HETATM   18  C31   D T 401      -4.484  -2.259  10.049  1.00 62.70    -0.004 A 
HETATM   19  C32   D T 401      -5.557  -2.574   9.191  1.00 62.25    -0.000 A 
HETATM   20  C33   D T 401      -5.949  -3.901   9.005  1.00 60.89    -0.000 A 
HETATM   21  C34   D T 401      -5.266  -4.907   9.692  1.00 61.83    -0.000 A 
HETATM   22  C35   D T 401      -4.192  -4.593  10.562  1.00 61.69    -0.004 A 
ENDBRANCH  16  17
ENDBRANCH   5  16
ENDBRANCH   3   5
ENDBRANCH   2   3
ENDBRANCH   1   2
BRANCH   1  23
HETATM   23  C44   D T 401      -1.930   1.965  10.713  1.00 61.03     0.051 C 
BRANCH  23  24
HETATM   24  C45   D T 401      -3.166   1.624   9.886  1.00 62.14    -0.020 A 
HETATM   25  C48   D T 401      -4.342   1.421  10.606  1.00 62.95    -0.004 A 
HETATM   26  C49   D T 401      -5.563   1.135   9.976  1.00 63.23    -0.000 A 
HETATM   27  C50   D T 401      -5.616   1.059   8.587  1.00 64.66    -0.000 A 
HETATM   28  C51   D T 401      -4.443   1.265   7.846  1.00 64.50    -0.000 A 
HETATM   29  C52   D T 401      -3.224   1.553   8.481  1.00 63.39    -0.004 A 
ENDBRANCH  23  24
ENDBRANCH   1  23
BRANCH   1  30
HETATM   30  N58   D T 401       0.241   1.206  11.180  1.00 60.63    -0.238 NA
HETATM   31  C18   D T 401       1.178   1.120  12.109  1.00 62.24     0.274 C 
HETATM   32  O61   D T 401       1.110   0.603  13.224  1.00 61.50    -0.268 OA
BRANCH  31  33
HETATM   33  C19   D T 401       2.419   1.796  11.632  1.00 64.75     0.188 C 
BRANCH  33  34
HETATM   34  N20   D T 401       2.821   1.214  10.368  1.00 65.69    -0.211 NA
HETATM   35  C21   D T 401       4.037   0.760  10.206  1.00 66.79     0.343 C 
HETATM   36  N74   D T 401       4.619   0.881   9.025  1.00 71.41    -0.294 N 
HETATM   37  O76   D T 401       4.682   0.377  11.147  1.00 67.85    -0.245 OA
HETATM   38  C95   D T 401       4.390   1.991   8.095  1.00 70.78     0.131 C 
BRANCH  36  39
HETATM   39  C75   D T 401       5.615  -0.081   8.582  1.00 74.33     0.152 C 
BRANCH  39  40
HETATM   40  C77   D T 401       6.906   0.661   8.463  1.00 76.44     0.088 A 
HETATM   41  C80   D T 401       7.732   0.631   7.333  1.00 78.25     0.053 A 
HETATM   42  S81   D T 401       9.115   1.634   7.598  1.00 82.00    -0.070 SA
HETATM   43  C82   D T 401       8.560   2.074   9.195  1.00 80.73     0.088 A 
HETATM   44  N83   D T 401       7.370   1.464   9.471  1.00 78.96    -0.245 NA
BRANCH  43  45
HETATM   45  C85   D T 401       9.399   3.009   9.990  1.00 81.61     0.047 C 
HETATM   46  C86   D T 401       8.742   3.351  11.333  1.00 81.16     0.007 C 
HETATM   47  C90   D T 401       9.703   4.256   9.142  1.00 82.31     0.007 C 
ENDBRANCH  43  45
ENDBRANCH  39  40
ENDBRANCH  36  39
ENDBRANCH  33  34
BRANCH  33  48
HETATM   48  C62   D T 401       2.193   3.309  11.438  1.00 64.68     0.032 C 
HETATM   49  C64   D T 401       1.422   3.921  12.594  1.00 64.29     0.003 C 
HETATM   50  C68   D T 401       3.502   4.058  11.200  1.00 63.77     0.003 C 
ENDBRANCH  33  48
ENDBRANCH  31  33
ENDBRANCH   1  30
TORSDOF 18
ENDMDL
MODEL 5
REMARK VINA RESULT:      -8.7      2.512      7.442
REMARK  18 active torsions:
REMARK  status: ('A' for Active; 'I' for Inactive)
REMARK    1  A    between atoms: C2_2  and  C6_6 
REMARK    2  A    between atoms: C6_6  and  O7_7 
REMARK    3  A    between atoms: O7_7  and  C10_8 
REMARK       I    between atoms: C10_8  and  N11_10 
REMARK    4  A    between atoms: N11_10  and  C12_11 
REMARK    5  A    between atoms: C12_11  and  C13_12 
REMARK    6  A    between atoms: C12_11  and  C26_15 
REMARK    7  A    between atoms: C13_12  and  C14_13 
REMARK    8  A    between atoms: C14_13  and  C15_14 
REMARK    9  A    between atoms: C15_14  and  C44_23 
REMARK   10  A    between atoms: C15_14  and  N58_30 
REMARK   11  A    between atoms: C26_15  and  C28_16 
REMARK   12  A    between atoms: C44_23  and  C45_24 
REMARK       I    between atoms: N58_30  and  C18_33 
REMARK   13  A    between atoms: N20_31  and  C19_32 
REMARK       I    between atoms: N20_31  and  C21_38 
REMARK   14  A    between atoms: C19_32  and  C18_33 
REMARK   15  A    between atoms: C19_32  and  C62_35 
REMARK       I    between atoms: C21_38  and  N74_39 
REMARK   16  A    between atoms: N74_39  and  C75_40 
REMARK   17  A    between atoms: C75_40  and  C77_42 
REMARK   18  A    between atoms: C82_45  and  C85_47 
ROOT
HETATM    1  C15   D T 401      -0.431   0.052  10.805  1.00 59.81     0.113 C 
ENDROOT
BRANCH   1   2
HETATM    2  C14   D T 401      -0.707  -1.356  10.260  1.00 58.93     0.060 C 
BRANCH   2   3
HETATM    3  C13   D T 401      -0.511  -2.537  11.240  1.00 59.07     0.177 C 
HETATM    4  O41   D T 401       0.732  -3.160  10.937  1.00 58.43    -0.221 OA
BRANCH   3   5
HETATM    5  C12   D T 401      -1.599  -3.614  11.192  1.00 59.52     0.143 C 
BRANCH   5   6
HETATM    6  N11   D T 401      -1.088  -4.779  11.896  1.00 58.37    -0.211 NA
HETATM    7  C10   D T 401      -1.074  -5.943  11.272  1.00 59.08     0.384 C 
HETATM    8  O24   D T 401      -1.573  -6.064  10.154  1.00 59.19    -0.236 OA
BRANCH   7   9
HETATM    9  O7    D T 401      -0.443  -7.093  11.904  1.00 58.33    -0.278 OA
BRANCH   9  10
HETATM   10  C6    D T 401      -0.923  -8.370  11.526  1.00 59.85     0.188 C 
BRANCH  10  11
HETATM   11  C2    D T 401      -1.424  -9.040  12.764  1.00 62.87     0.058 A 
HETATM   12  C1    D T 401      -2.644  -9.598  13.131  1.00 63.59     0.104 A 
HETATM   13  N5    D T 401      -2.605 -10.071  14.428  1.00 65.21    -0.235 NA
HETATM   14  C4    D T 401      -1.428  -9.917  15.102  1.00 64.03     0.134 A 
HETATM   15  S3    D T 401      -0.293  -9.116  14.077  1.00 63.44    -0.066 SA
ENDBRANCH  10  11
ENDBRANCH   9  10
ENDBRANCH   7   9
ENDBRANCH   5   6
BRANCH   5  16
HETATM   16  C26   D T 401      -2.981  -3.205  11.746  1.00 59.99     0.053 C 
BRANCH  16  17
HETATM   17  C28   D T 401      -4.069  -3.294  10.681  1.00 61.27    -0.020 A 
HETATM   18  C31   D T 401      -4.652  -4.534  10.360  1.00 62.70    -0.004 A 
HETATM   19  C32   D T 401      -5.660  -4.638   9.380  1.00 62.25    -0.000 A 
HETATM   20  C33   D T 401      -6.113  -3.502   8.707  1.00 60.89    -0.000 A 
HETATM   21  C34   D T 401      -5.542  -2.264   9.016  1.00 61.83    -0.000 A 
HETATM   22  C35   D T 401      -4.522  -2.158   9.994  1.00 61.69    -0.004 A 
ENDBRANCH  16  17
ENDBRANCH   5  16
ENDBRANCH   3   5
ENDBRANCH   2   3
ENDBRANCH   1   2
BRANCH   1  23
HETATM   23  C44   D T 401      -0.980   1.114   9.836  1.00 61.03     0.051 C 
BRANCH  23  24
HETATM   24  C45   D T 401      -2.498   1.246   9.763  1.00 62.14    -0.020 A 
HETATM   25  C48   D T 401      -3.051   1.209   8.485  1.00 62.95    -0.004 A 
HETATM   26  C49   D T 401      -4.436   1.285   8.267  1.00 63.23    -0.000 A 
HETATM   27  C50   D T 401      -5.295   1.390   9.358  1.00 64.66    -0.000 A 
HETATM   28  C51   D T 401      -4.756   1.424  10.653  1.00 64.50    -0.000 A 
HETATM   29  C52   D T 401      -3.371   1.346  10.864  1.00 63.39    -0.004 A 
ENDBRANCH  23  24
ENDBRANCH   1  23
BRANCH   1  30
HETATM   30  N58   D T 401       0.971   0.352  10.893  1.00 60.63    -0.238 NA
HETATM   31  C18   D T 401       1.713   0.448  11.984  1.00 62.24     0.274 C 
HETATM   32  O61   D T 401       1.389   0.246  13.154  1.00 61.50    -0.268 OA
BRANCH  31  33
HETATM   33  C19   D T 401       3.089   0.889  11.615  1.00 64.75     0.188 C 
BRANCH  33  34
HETATM   34  N20   D T 401       3.748  -0.172  10.882  1.00 65.69    -0.211 NA
HETATM   35  C21   D T 401       4.846  -0.712  11.342  1.00 66.79     0.343 C 
HETATM   36  N74   D T 401       5.778  -1.106  10.491  1.00 71.41    -0.294 N 
HETATM   37  O76   D T 401       5.083  -0.715  12.521  1.00 67.85    -0.245 OA
HETATM   38  C95   D T 401       6.061  -0.454   9.208  1.00 70.78     0.131 C 
BRANCH  36  39
HETATM   39  C75   D T 401       6.663  -2.213  10.814  1.00 74.33     0.152 C 
BRANCH  39  40
HETATM   40  C77   D T 401       5.834  -3.455  10.759  1.00 76.44     0.088 A 
HETATM   41  C80   D T 401       5.290  -3.991   9.586  1.00 78.25     0.053 A 
HETATM   42  S81   D T 401       4.415  -5.434   9.957  1.00 82.00    -0.070 SA
HETATM   43  C82   D T 401       4.798  -5.297  11.656  1.00 80.73     0.088 A 
HETATM   44  N83   D T 401       5.561  -4.188  11.885  1.00 78.96    -0.245 NA
BRANCH  43  45
HETATM   45  C85   D T 401       4.283  -6.348  12.573  1.00 81.61     0.047 C 
HETATM   46  C86   D T 401       2.766  -6.233  12.766  1.00 81.16     0.007 C 
HETATM   47  C90   D T 401       5.058  -6.280  13.900  1.00 82.31     0.007 C 
ENDBRANCH  43  45
ENDBRANCH  39  40
ENDBRANCH  36  39
ENDBRANCH  33  34
BRANCH  33  48
HETATM   48  C62   D T 401       3.055   2.158  10.741  1.00 64.68     0.032 C 
HETATM   49  C64   D T 401       4.025   3.216  11.238  1.00 64.29     0.003 C 
HETATM   50  C68   D T 401       3.300   1.845   9.266  1.00 63.77     0.003 C 
ENDBRANCH  33  48
ENDBRANCH  31  33
ENDBRANCH   1  30
TORSDOF 18
ENDMDL
MODEL 6
REMARK VINA RESULT:      -8.6      2.401      3.885
REMARK  18 active torsions:
REMARK  status: ('A' for Active; 'I' for Inactive)
REMARK    1  A    between atoms: C2_2  and  C6_6 
REMARK    2  A    between atoms: C6_6  and  O7_7 
REMARK    3  A    between atoms: O7_7  and  C10_8 
REMARK       I    between atoms: C10_8  and  N11_10 
REMARK    4  A    between atoms: N11_10  and  C12_11 
REMARK    5  A    between atoms: C12_11  and  C13_12 
REMARK    6  A    between atoms: C12_11  and  C26_15 
REMARK    7  A    between atoms: C13_12  and  C14_13 
REMARK    8  A    between atoms: C14_13  and  C15_14 
REMARK    9  A    between atoms: C15_14  and  C44_23 
REMARK   10  A    between atoms: C15_14  and  N58_30 
REMARK   11  A    between atoms: C26_15  and  C28_16 
REMARK   12  A    between atoms: C44_23  and  C45_24 
REMARK       I    between atoms: N58_30  and  C18_33 
REMARK   13  A    between atoms: N20_31  and  C19_32 
REMARK       I    between atoms: N20_31  and  C21_38 
REMARK   14  A    between atoms: C19_32  and  C18_33 
REMARK   15  A    between atoms: C19_32  and  C62_35 
REMARK       I    between atoms: C21_38  and  N74_39 
REMARK   16  A    between atoms: N74_39  and  C75_40 
REMARK   17  A    between atoms: C75_40  and  C77_42 
REMARK   18  A    between atoms: C82_45  and  C85_47 
ROOT
HETATM    1  C15   D T 401      -1.548  -2.260  10.890  1.00 59.81     0.113 C 
ENDROOT
BRANCH   1   2
HETATM    2  C14   D T 401      -0.693  -1.233  11.645  1.00 58.93     0.060 C 
BRANCH   2   3
HETATM    3  C13   D T 401       0.377  -0.475  10.826  1.00 59.07     0.177 C 
HETATM    4  O41   D T 401       1.485  -0.214  11.680  1.00 58.43    -0.221 OA
BRANCH   3   5
HETATM    5  C12   D T 401      -0.080   0.860  10.232  1.00 59.52     0.143 C 
BRANCH   5   6
HETATM    6  N11   D T 401       1.110   1.667  10.012  1.00 58.37    -0.211 NA
HETATM    7  C10   D T 401       1.117   2.918  10.438  1.00 59.08     0.384 C 
HETATM    8  O24   D T 401       0.107   3.423  10.925  1.00 59.19    -0.236 OA
BRANCH   7   9
HETATM    9  O7    D T 401       2.341   3.702  10.353  1.00 58.33    -0.278 OA
BRANCH   9  10
HETATM   10  C6    D T 401       3.382   3.171   9.554  1.00 59.85     0.188 C 
BRANCH  10  11
HETATM   11  C2    D T 401       4.433   4.225   9.436  1.00 62.87     0.058 A 
HETATM   12  C1    D T 401       5.311   4.815  10.340  1.00 63.59     0.104 A 
HETATM   13  N5    D T 401       6.077   5.787   9.726  1.00 65.21    -0.235 NA
HETATM   14  C4    D T 401       5.853   5.997   8.396  1.00 64.03     0.134 A 
HETATM   15  S3    D T 401       4.598   4.938   7.864  1.00 63.44    -0.066 SA
ENDBRANCH  10  11
ENDBRANCH   9  10
ENDBRANCH   7   9
ENDBRANCH   5   6
BRANCH   5  16
HETATM   16  C26   D T 401      -0.925   0.773   8.943  1.00 59.99     0.053 C 
BRANCH  16  17
HETATM   17  C28   D T 401      -2.390   1.110   9.200  1.00 61.27    -0.020 A 
HETATM   18  C31   D T 401      -2.851   1.333  10.510  1.00 62.70    -0.004 A 
HETATM   19  C32   D T 401      -4.201   1.646  10.769  1.00 62.25    -0.000 A 
HETATM   20  C33   D T 401      -5.116   1.753   9.721  1.00 60.89    -0.000 A 
HETATM   21  C34   D T 401      -4.673   1.534   8.414  1.00 61.83    -0.000 A 
HETATM   22  C35   D T 401      -3.318   1.209   8.152  1.00 61.69    -0.004 A 
ENDBRANCH  16  17
ENDBRANCH   5  16
ENDBRANCH   3   5
ENDBRANCH   2   3
ENDBRANCH   1   2
BRANCH   1  23
HETATM   23  C44   D T 401      -2.964  -2.319  11.491  1.00 61.03     0.051 C 
BRANCH  23  24
HETATM   24  C45   D T 401      -4.066  -2.848  10.580  1.00 62.14    -0.020 A 
HETATM   25  C48   D T 401      -4.657  -1.912   9.734  1.00 62.95    -0.004 A 
HETATM   26  C49   D T 401      -5.661  -2.263   8.816  1.00 63.23    -0.000 A 
HETATM   27  C50   D T 401      -6.079  -3.588   8.734  1.00 64.66    -0.000 A 
HETATM   28  C51   D T 401      -5.492  -4.545   9.575  1.00 64.50    -0.000 A 
HETATM   29  C52   D T 401      -4.487  -4.189  10.489  1.00 63.39    -0.004 A 
ENDBRANCH  23  24
ENDBRANCH   1  23
BRANCH   1  30
HETATM   30  N58   D T 401      -1.056  -3.604  11.023  1.00 60.63    -0.238 NA
HETATM   31  C18   D T 401      -0.077  -4.180  10.347  1.00 62.24     0.274 C 
HETATM   32  O61   D T 401       0.668  -3.685   9.501  1.00 61.50    -0.268 OA
BRANCH  31  33
HETATM   33  C19   D T 401       0.018  -5.617  10.732  1.00 64.75     0.188 C 
BRANCH  33  34
HETATM   34  N20   D T 401       0.831  -5.737  11.924  1.00 65.69    -0.211 NA
HETATM   35  C21   D T 401       2.115  -5.970  11.830  1.00 66.79     0.343 C 
HETATM   36  N74   D T 401       2.703  -6.725  12.742  1.00 71.41    -0.294 N 
HETATM   37  O76   D T 401       2.731  -5.636  10.852  1.00 67.85    -0.245 OA
HETATM   38  C95   D T 401       2.058  -7.846  13.435  1.00 70.78     0.131 C 
BRANCH  36  39
HETATM   39  C75   D T 401       4.102  -6.529  13.083  1.00 74.33     0.152 C 
BRANCH  39  40
HETATM   40  C77   D T 401       4.139  -6.100  14.514  1.00 76.44     0.088 A 
HETATM   41  C80   D T 401       3.622  -4.889  14.988  1.00 78.25     0.053 A 
HETATM   42  S81   D T 401       3.854  -4.788  16.698  1.00 82.00    -0.070 SA
HETATM   43  C82   D T 401       4.624  -6.356  16.743  1.00 80.73     0.088 A 
HETATM   44  N83   D T 401       4.678  -6.896  15.490  1.00 78.96    -0.245 NA
BRANCH  43  45
HETATM   45  C85   D T 401       5.080  -6.870  18.061  1.00 81.61     0.047 C 
HETATM   46  C86   D T 401       6.246  -7.855  17.908  1.00 81.16     0.007 C 
HETATM   47  C90   D T 401       3.880  -7.480  18.805  1.00 82.31     0.007 C 
ENDBRANCH  43  45
ENDBRANCH  39  40
ENDBRANCH  36  39
ENDBRANCH  33  34
BRANCH  33  48
HETATM   48  C62   D T 401      -1.375  -6.216  11.012  1.00 64.68     0.032 C 
HETATM   49  C64   D T 401      -1.998  -6.813   9.762  1.00 64.29     0.003 C 
HETATM   50  C68   D T 401      -1.342  -7.239  12.145  1.00 63.77     0.003 C 
ENDBRANCH  33  48
ENDBRANCH  31  33
ENDBRANCH   1  30
TORSDOF 18
ENDMDL
MODEL 7
REMARK VINA RESULT:      -8.3      2.553      4.130
REMARK  18 active torsions:
REMARK  status: ('A' for Active; 'I' for Inactive)
REMARK    1  A    between atoms: C2_2  and  C6_6 
REMARK    2  A    between atoms: C6_6  and  O7_7 
REMARK    3  A    between atoms: O7_7  and  C10_8 
REMARK       I    between atoms: C10_8  and  N11_10 
REMARK    4  A    between atoms: N11_10  and  C12_11 
REMARK    5  A    between atoms: C12_11  and  C13_12 
REMARK    6  A    between atoms: C12_11  and  C26_15 
REMARK    7  A    between atoms: C13_12  and  C14_13 
REMARK    8  A    between atoms: C14_13  and  C15_14 
REMARK    9  A    between atoms: C15_14  and  C44_23 
REMARK   10  A    between atoms: C15_14  and  N58_30 
REMARK   11  A    between atoms: C26_15  and  C28_16 
REMARK   12  A    between atoms: C44_23  and  C45_24 
REMARK       I    between atoms: N58_30  and  C18_33 
REMARK   13  A    between atoms: N20_31  and  C19_32 
REMARK       I    between atoms: N20_31  and  C21_38 
REMARK   14  A    between atoms: C19_32  and  C18_33 
REMARK   15  A    between atoms: C19_32  and  C62_35 
REMARK       I    between atoms: C21_38  and  N74_39 
REMARK   16  A    between atoms: N74_39  and  C75_40 
REMARK   17  A    between atoms: C75_40  and  C77_42 
REMARK   18  A    between atoms: C82_45  and  C85_47 
ROOT
HETATM    1  C15   D T 401      -1.855  -3.307  11.442  1.00 59.81     0.113 C 
ENDROOT
BRANCH   1   2
HETATM    2  C14   D T 401      -0.911  -2.510  12.352  1.00 58.93     0.060 C 
BRANCH   2   3
HETATM    3  C13   D T 401       0.241  -1.740  11.664  1.00 59.07     0.177 C 
HETATM    4  O41   D T 401       1.300  -1.599  12.603  1.00 58.43    -0.221 OA
BRANCH   3   5
HETATM    5  C12   D T 401      -0.122  -0.343  11.153  1.00 59.52     0.143 C 
BRANCH   5   6
HETATM    6  N11   D T 401       1.105   0.438  11.117  1.00 58.37    -0.211 NA
HETATM    7  C10   D T 401       1.102   1.651  11.639  1.00 59.08     0.384 C 
HETATM    8  O24   D T 401       0.060   2.152  12.061  1.00 59.19    -0.236 OA
BRANCH   7   9
HETATM    9  O7    D T 401       2.348   2.397  11.738  1.00 58.33    -0.278 OA
BRANCH   9  10
HETATM   10  C6    D T 401       3.481   1.828  11.110  1.00 59.85     0.188 C 
BRANCH  10  11
HETATM   11  C2    D T 401       4.348   2.955  10.651  1.00 62.87     0.058 A 
HETATM   12  C1    D T 401       5.474   3.580  11.178  1.00 63.59     0.104 A 
HETATM   13  N5    D T 401       5.890   4.618  10.368  1.00 65.21    -0.235 NA
HETATM   14  C4    D T 401       5.159   4.847   9.238  1.00 64.03     0.134 A 
HETATM   15  S3    D T 401       3.855   3.719   9.175  1.00 63.44    -0.066 SA
ENDBRANCH  10  11
ENDBRANCH   9  10
ENDBRANCH   7   9
ENDBRANCH   5   6
BRANCH   5  16
HETATM   16  C26   D T 401      -0.844  -0.286   9.790  1.00 59.99     0.053 C 
BRANCH  16  17
HETATM   17  C28   D T 401      -2.185   0.433   9.886  1.00 61.27    -0.020 A 
HETATM   18  C31   D T 401      -2.835   0.568  11.127  1.00 62.70    -0.004 A 
HETATM   19  C32   D T 401      -4.075   1.229  11.237  1.00 62.25    -0.000 A 
HETATM   20  C33   D T 401      -4.686   1.779  10.109  1.00 60.89    -0.000 A 
HETATM   21  C34   D T 401      -4.053   1.651   8.870  1.00 61.83    -0.000 A 
HETATM   22  C35   D T 401      -2.811   0.978   8.754  1.00 61.69    -0.004 A 
ENDBRANCH  16  17
ENDBRANCH   5  16
ENDBRANCH   3   5
ENDBRANCH   2   3
ENDBRANCH   1   2
BRANCH   1  23
HETATM   23  C44   D T 401      -3.321  -3.029  11.822  1.00 61.03     0.051 C 
BRANCH  23  24
HETATM   24  C45   D T 401      -4.360  -3.262  10.730  1.00 62.14    -0.020 A 
HETATM   25  C48   D T 401      -4.667  -2.158   9.937  1.00 62.95    -0.004 A 
HETATM   26  C49   D T 401      -5.579  -2.233   8.873  1.00 63.23    -0.000 A 
HETATM   27  C50   D T 401      -6.196  -3.447   8.585  1.00 64.66    -0.000 A 
HETATM   28  C51   D T 401      -5.897  -4.570   9.370  1.00 64.50    -0.000 A 
HETATM   29  C52   D T 401      -4.982  -4.490  10.432  1.00 63.39    -0.004 A 
ENDBRANCH  23  24
ENDBRANCH   1  23
BRANCH   1  30
HETATM   30  N58   D T 401      -1.717  -4.729  11.600  1.00 60.63    -0.238 NA
HETATM   31  C18   D T 401      -0.672  -5.480  11.300  1.00 62.24     0.274 C 
HETATM   32  O61   D T 401       0.430  -5.131  10.876  1.00 61.50    -0.268 OA
BRANCH  31  33
HETATM   33  C19   D T 401      -1.008  -6.916  11.522  1.00 64.75     0.188 C 
BRANCH  33  34
HETATM   34  N20   D T 401      -0.550  -7.314  12.837  1.00 65.69    -0.211 NA
HETATM   35  C21   D T 401       0.483  -8.105  12.967  1.00 66.79     0.343 C 
HETATM   36  N74   D T 401       0.503  -8.984  13.953  1.00 71.41    -0.294 N 
HETATM   37  O76   D T 401       1.337  -8.146  12.120  1.00 67.85    -0.245 OA
HETATM   38  C95   D T 401      -0.685  -9.649  14.499  1.00 70.78     0.131 C 
BRANCH  36  39
HETATM   39  C75   D T 401       1.760  -9.419  14.540  1.00 74.33     0.152 C 
BRANCH  39  40
HETATM   40  C77   D T 401       1.761  -8.941  15.955  1.00 76.44     0.088 A 
HETATM   41  C80   D T 401       1.702  -9.781  17.073  1.00 78.25     0.053 A 
HETATM   42  S81   D T 401       1.741  -8.831  18.517  1.00 82.00    -0.070 SA
HETATM   43  C82   D T 401       1.843  -7.345  17.604  1.00 80.73     0.088 A 
HETATM   44  N83   D T 401       1.847  -7.608  16.264  1.00 78.96    -0.245 NA
BRANCH  43  45
HETATM   45  C85   D T 401       1.920  -6.068  18.360  1.00 81.61     0.047 C 
HETATM   46  C86   D T 401       2.864  -5.067  17.681  1.00 81.16     0.007 C 
HETATM   47  C90   D T 401       2.321  -6.369  19.815  1.00 82.31     0.007 C 
ENDBRANCH  43  45
ENDBRANCH  39  40
ENDBRANCH  36  39
ENDBRANCH  33  34
BRANCH  33  48
HETATM   48  C62   D T 401      -2.528  -7.157  11.426  1.00 64.68     0.032 C 
HETATM   49  C64   D T 401      -2.962  -7.494  10.010  1.00 64.29     0.003 C 
HETATM   50  C68   D T 401      -3.002  -8.225  12.409  1.00 63.77     0.003 C 
ENDBRANCH  33  48
ENDBRANCH  31  33
ENDBRANCH   1  30
TORSDOF 18
ENDMDL
MODEL 8
REMARK VINA RESULT:      -8.2      2.500      9.246
REMARK  18 active torsions:
REMARK  status: ('A' for Active; 'I' for Inactive)
REMARK    1  A    between atoms: C2_2  and  C6_6 
REMARK    2  A    between atoms: C6_6  and  O7_7 
REMARK    3  A    between atoms: O7_7  and  C10_8 
REMARK       I    between atoms: C10_8  and  N11_10 
REMARK    4  A    between atoms: N11_10  and  C12_11 
REMARK    5  A    between atoms: C12_11  and  C13_12 
REMARK    6  A    between atoms: C12_11  and  C26_15 
REMARK    7  A    between atoms: C13_12  and  C14_13 
REMARK    8  A    between atoms: C14_13  and  C15_14 
REMARK    9  A    between atoms: C15_14  and  C44_23 
REMARK   10  A    between atoms: C15_14  and  N58_30 
REMARK   11  A    between atoms: C26_15  and  C28_16 
REMARK   12  A    between atoms: C44_23  and  C45_24 
REMARK       I    between atoms: N58_30  and  C18_33 
REMARK   13  A    between atoms: N20_31  and  C19_32 
REMARK       I    between atoms: N20_31  and  C21_38 
REMARK   14  A    between atoms: C19_32  and  C18_33 
REMARK   15  A    between atoms: C19_32  and  C62_35 
REMARK       I    between atoms: C21_38  and  N74_39 
REMARK   16  A    between atoms: N74_39  and  C75_40 
REMARK   17  A    between atoms: C75_40  and  C77_42 
REMARK   18  A    between atoms: C82_45  and  C85_47 
ROOT
HETATM    1  C15   D T 401       0.747  -2.445  10.808  1.00 59.81     0.113 C 
ENDROOT
BRANCH   1   2
HETATM    2  C14   D T 401      -0.543  -2.956  11.464  1.00 58.93     0.060 C 
BRANCH   2   3
HETATM    3  C13   D T 401      -0.942  -4.423  11.174  1.00 59.07     0.177 C 
HETATM    4  O41   D T 401      -0.353  -4.805   9.937  1.00 58.43    -0.221 OA
BRANCH   3   5
HETATM    5  C12   D T 401      -2.448  -4.682  11.076  1.00 59.52     0.143 C 
BRANCH   5   6
HETATM    6  N11   D T 401      -2.701  -5.991  11.659  1.00 58.37    -0.211 NA
HETATM    7  C10   D T 401      -2.961  -7.005  10.853  1.00 59.08     0.384 C 
HETATM    8  O24   D T 401      -3.084  -6.831   9.641  1.00 59.19    -0.236 OA
BRANCH   7   9
HETATM    9  O7    D T 401      -3.082  -8.349  11.400  1.00 58.33    -0.278 OA
BRANCH   9  10
HETATM   10  C6    D T 401      -3.723  -8.468  12.656  1.00 59.85     0.188 C 
BRANCH  10  11
HETATM   11  C2    D T 401      -2.908  -9.408  13.484  1.00 62.87     0.058 A 
HETATM   12  C1    D T 401      -3.205 -10.553  14.216  1.00 63.59     0.104 A 
HETATM   13  N5    D T 401      -2.079 -11.047  14.845  1.00 65.21    -0.235 NA
HETATM   14  C4    D T 401      -0.916 -10.358  14.653  1.00 64.03     0.134 A 
HETATM   15  S3    D T 401      -1.231  -8.995  13.642  1.00 63.44    -0.066 SA
ENDBRANCH  10  11
ENDBRANCH   9  10
ENDBRANCH   7   9
ENDBRANCH   5   6
BRANCH   5  16
HETATM   16  C26   D T 401      -3.361  -3.615  11.717  1.00 59.99     0.053 C 
BRANCH  16  17
HETATM   17  C28   D T 401      -4.158  -2.846  10.668  1.00 61.27    -0.020 A 
HETATM   18  C31   D T 401      -5.000  -3.527   9.771  1.00 62.70    -0.004 A 
HETATM   19  C32   D T 401      -5.745  -2.835   8.795  1.00 62.25    -0.000 A 
HETATM   20  C33   D T 401      -5.671  -1.444   8.703  1.00 60.89    -0.000 A 
HETATM   21  C34   D T 401      -4.838  -0.754   9.588  1.00 61.83    -0.000 A 
HETATM   22  C35   D T 401      -4.081  -1.448  10.564  1.00 61.69    -0.004 A 
ENDBRANCH  16  17
ENDBRANCH   5  16
ENDBRANCH   3   5
ENDBRANCH   2   3
ENDBRANCH   1   2
BRANCH   1  23
HETATM   23  C44   D T 401       1.976  -2.977  11.566  1.00 61.03     0.051 C 
BRANCH  23  24
HETATM   24  C45   D T 401       2.919  -3.883  10.780  1.00 62.14    -0.020 A 
HETATM   25  C48   D T 401       3.696  -4.756  11.539  1.00 62.95    -0.004 A 
HETATM   26  C49   D T 401       4.582  -5.671  10.949  1.00 63.23    -0.000 A 
HETATM   27  C50   D T 401       4.690  -5.723   9.562  1.00 64.66    -0.000 A 
HETATM   28  C51   D T 401       3.912  -4.854   8.782  1.00 64.50    -0.000 A 
HETATM   29  C52   D T 401       3.025  -3.942   9.377  1.00 63.39    -0.004 A 
ENDBRANCH  23  24
ENDBRANCH   1  23
BRANCH   1  30
HETATM   30  N58   D T 401       0.884  -1.016  10.881  1.00 60.63    -0.238 NA
HETATM   31  C18   D T 401       0.815  -0.143   9.890  1.00 62.24     0.274 C 
HETATM   32  O61   D T 401       0.563  -0.347   8.703  1.00 61.50    -0.268 OA
BRANCH  31  33
HETATM   33  C19   D T 401       1.128   1.221  10.404  1.00 64.75     0.188 C 
BRANCH  33  34
HETATM   34  N20   D T 401       2.380   1.669   9.829  1.00 65.69    -0.211 NA
HETATM   35  C21   D T 401       3.427   1.860  10.589  1.00 66.79     0.343 C 
HETATM   36  N74   D T 401       4.266   2.839  10.298  1.00 71.41    -0.294 N 
HETATM   37  O76   D T 401       3.553   1.262  11.625  1.00 67.85    -0.245 OA
HETATM   38  C95   D T 401       3.877   4.112   9.683  1.00 70.78     0.131 C 
BRANCH  36  39
HETATM   39  C75   D T 401       5.675   2.742  10.644  1.00 74.33     0.152 C 
BRANCH  39  40
HETATM   40  C77   D T 401       6.249   1.649   9.802  1.00 76.44     0.088 A 
HETATM   41  C80   D T 401       6.289   1.668   8.403  1.00 78.25     0.053 A 
HETATM   42  S81   D T 401       7.044   0.226   7.823  1.00 82.00    -0.070 SA
HETATM   43  C82   D T 401       7.296  -0.363   9.449  1.00 80.73     0.088 A 
HETATM   44  N83   D T 401       6.812   0.532  10.360  1.00 78.96    -0.245 NA
BRANCH  43  45
HETATM   45  C85   D T 401       7.973  -1.676   9.616  1.00 81.61     0.047 C 
HETATM   46  C86   D T 401       6.967  -2.834   9.601  1.00 81.16     0.007 C 
HETATM   47  C90   D T 401       8.822  -1.643  10.899  1.00 82.31     0.007 C 
ENDBRANCH  43  45
ENDBRANCH  39  40
ENDBRANCH  36  39
ENDBRANCH  33  34
BRANCH  33  48
HETATM   48  C62   D T 401       0.019   2.227  10.036  1.00 64.68     0.032 C 
HETATM   49  C64   D T 401      -1.341   1.783  10.545  1.00 64.29     0.003 C 
HETATM   50  C68   D T 401       0.345   3.640  10.514  1.00 63.77     0.003 C 
ENDBRANCH  33  48
ENDBRANCH  31  33
ENDBRANCH   1  30
TORSDOF 18
ENDMDL
MODEL 9
REMARK VINA RESULT:      -8.2      2.997      8.128
REMARK  18 active torsions:
REMARK  status: ('A' for Active; 'I' for Inactive)
REMARK    1  A    between atoms: C2_2  and  C6_6 
REMARK    2  A    between atoms: C6_6  and  O7_7 
REMARK    3  A    between atoms: O7_7  and  C10_8 
REMARK       I    between atoms: C10_8  and  N11_10 
REMARK    4  A    between atoms: N11_10  and  C12_11 
REMARK    5  A    between atoms: C12_11  and  C13_12 
REMARK    6  A    between atoms: C12_11  and  C26_15 
REMARK    7  A    between atoms: C13_12  and  C14_13 
REMARK    8  A    between atoms: C14_13  and  C15_14 
REMARK    9  A    between atoms: C15_14  and  C44_23 
REMARK   10  A    between atoms: C15_14  and  N58_30 
REMARK   11  A    between atoms: C26_15  and  C28_16 
REMARK   12  A    between atoms: C44_23  and  C45_24 
REMARK       I    between atoms: N58_30  and  C18_33 
REMARK   13  A    between atoms: N20_31  and  C19_32 
REMARK       I    between atoms: N20_31  and  C21_38 
REMARK   14  A    between atoms: C19_32  and  C18_33 
REMARK   15  A    between atoms: C19_32  and  C62_35 
REMARK       I    between atoms: C21_38  and  N74_39 
REMARK   16  A    between atoms: N74_39  and  C75_40 
REMARK   17  A    between atoms: C75_40  and  C77_42 
REMARK   18  A    between atoms: C82_45  and  C85_47 
ROOT
HETATM    1  C15   D T 401      -0.604  -0.152  10.730  1.00 59.81     0.113 C 
ENDROOT
BRANCH   1   2
HETATM    2  C14   D T 401      -0.407  -1.617  10.316  1.00 58.93     0.060 C 
BRANCH   2   3
HETATM    3  C13   D T 401      -0.584  -2.686  11.420  1.00 59.07     0.177 C 
HETATM    4  O41   D T 401       0.552  -3.542  11.392  1.00 58.43    -0.221 OA
BRANCH   3   5
HETATM    5  C12   D T 401      -1.833  -3.562  11.288  1.00 59.52     0.143 C 
BRANCH   5   6
HETATM    6  N11   D T 401      -1.595  -4.775  12.054  1.00 58.37    -0.211 NA
HETATM    7  C10   D T 401      -1.635  -5.939  11.429  1.00 59.08     0.384 C 
HETATM    8  O24   D T 401      -1.963  -6.006  10.245  1.00 59.19    -0.236 OA
BRANCH   7   9
HETATM    9  O7    D T 401      -1.267  -7.153  12.142  1.00 58.33    -0.278 OA
BRANCH   9  10
HETATM   10  C6    D T 401      -2.013  -8.318  11.842  1.00 59.85     0.188 C 
BRANCH  10  11
HETATM   11  C2    D T 401      -2.088  -9.132  13.092  1.00 62.87     0.058 A 
HETATM   12  C1    D T 401      -3.046  -9.983  13.632  1.00 63.59     0.104 A 
HETATM   13  N5    D T 401      -2.641 -10.475  14.857  1.00 65.21    -0.235 NA
HETATM   14  C4    D T 401      -1.423 -10.061  15.313  1.00 64.03     0.134 A 
HETATM   15  S3    D T 401      -0.734  -8.973  14.164  1.00 63.44    -0.066 SA
ENDBRANCH  10  11
ENDBRANCH   9  10
ENDBRANCH   7   9
ENDBRANCH   5   6
BRANCH   5  16
HETATM   16  C26   D T 401      -3.167  -2.906  11.706  1.00 59.99     0.053 C 
BRANCH  16  17
HETATM   17  C28   D T 401      -4.260  -3.128  10.666  1.00 61.27    -0.020 A 
HETATM   18  C31   D T 401      -4.632  -2.092   9.790  1.00 62.70    -0.004 A 
HETATM   19  C32   D T 401      -5.640  -2.277   8.822  1.00 62.25    -0.000 A 
HETATM   20  C33   D T 401      -6.290  -3.507   8.704  1.00 60.89    -0.000 A 
HETATM   21  C34   D T 401      -5.932  -4.544   9.568  1.00 61.83    -0.000 A 
HETATM   22  C35   D T 401      -4.926  -4.358  10.549  1.00 61.69    -0.004 A 
ENDBRANCH  16  17
ENDBRANCH   5  16
ENDBRANCH   3   5
ENDBRANCH   2   3
ENDBRANCH   1   2
BRANCH   1  23
HETATM   23  C44   D T 401      -1.129   0.670   9.539  1.00 61.03     0.051 C 
BRANCH  23  24
HETATM   24  C45   D T 401      -2.615   1.011   9.554  1.00 62.14    -0.020 A 
HETATM   25  C48   D T 401      -3.231   1.103   8.307  1.00 62.95    -0.004 A 
HETATM   26  C49   D T 401      -4.601   1.375   8.169  1.00 63.23    -0.000 A 
HETATM   27  C50   D T 401      -5.382   1.553   9.308  1.00 64.66    -0.000 A 
HETATM   28  C51   D T 401      -4.780   1.461  10.571  1.00 64.50    -0.000 A 
HETATM   29  C52   D T 401      -3.410   1.185  10.704  1.00 63.39    -0.004 A 
ENDBRANCH  23  24
ENDBRANCH   1  23
BRANCH   1  30
HETATM   30  N58   D T 401       0.628   0.498  11.086  1.00 60.63    -0.238 NA
HETATM   31  C18   D T 401       1.710   0.649  10.342  1.00 62.24     0.274 C 
HETATM   32  O61   D T 401       1.887   0.325   9.168  1.00 61.50    -0.268 OA
BRANCH  31  33
HETATM   33  C19   D T 401       2.789   1.283  11.153  1.00 64.75     0.188 C 
BRANCH  33  34
HETATM   34  N20   D T 401       3.960   0.431  11.132  1.00 65.69    -0.211 NA
HETATM   35  C21   D T 401       4.159  -0.444  12.084  1.00 66.79     0.343 C 
HETATM   36  N74   D T 401       5.395  -0.699  12.479  1.00 71.41    -0.294 N 
HETATM   37  O76   D T 401       3.235  -0.901  12.703  1.00 67.85    -0.245 OA
HETATM   38  C95   D T 401       6.483   0.285  12.491  1.00 70.78     0.131 C 
BRANCH  36  39
HETATM   39  C75   D T 401       5.754  -2.003  13.011  1.00 74.33     0.152 C 
BRANCH  39  40
HETATM   40  C77   D T 401       6.308  -2.794  11.872  1.00 76.44     0.088 A 
HETATM   41  C80   D T 401       5.529  -3.486  10.938  1.00 78.25     0.053 A 
HETATM   42  S81   D T 401       6.555  -4.255   9.779  1.00 82.00    -0.070 SA
HETATM   43  C82   D T 401       7.991  -3.634  10.556  1.00 80.73     0.088 A 
HETATM   44  N83   D T 401       7.657  -2.879  11.643  1.00 78.96    -0.245 NA
BRANCH  43  45
HETATM   45  C85   D T 401       9.309  -3.979   9.960  1.00 81.61     0.047 C 
HETATM   46  C86   D T 401       9.272  -3.903   8.429  1.00 81.16     0.007 C 
HETATM   47  C90   D T 401       9.747  -5.361  10.476  1.00 82.31     0.007 C 
ENDBRANCH  43  45
ENDBRANCH  39  40
ENDBRANCH  36  39
ENDBRANCH  33  34
BRANCH  33  48
HETATM   48  C62   D T 401       3.168   2.670  10.596  1.00 64.68     0.032 C 
HETATM   49  C64   D T 401       1.998   3.637  10.635  1.00 64.29     0.003 C 
HETATM   50  C68   D T 401       4.385   3.259  11.305  1.00 63.77     0.003 C 
ENDBRANCH  33  48
ENDBRANCH  31  33
ENDBRANCH   1  30
TORSDOF 18
ENDMDL
